                                   MODFLOW 6
                U.S. GEOLOGICAL SURVEY MODULAR HYDROLOGIC MODEL
                          GROUNDWATER FLOW MODEL (GWF)
                            VERSION 6.4.2 06/28/2023

   MODFLOW 6 compiled Jun 28 2023 18:41:13 with Intel(R) Fortran Intel(R) 64
   Compiler Classic for applications running on Intel(R) 64, Version 2021.7.0
                             Build 20220726_000000

This software has been approved for release by the U.S. Geological 
Survey (USGS). Although the software has been subjected to rigorous 
review, the USGS reserves the right to update the software as needed 
pursuant to further analysis and review. No warranty, expressed or 
implied, is made by the USGS or the U.S. Government as to the 
functionality of the software and related material nor shall the 
fact of release constitute any such warranty. Furthermore, the 
software is released on condition that neither the USGS nor the U.S. 
Government shall be held liable for any damages resulting from its 
authorized or unauthorized use. Also refer to the USGS Water 
Resources Software User Rights Notice for complete use, copyright, 
and distribution information.


As a work of the United States Government, this USGS product is 
in the public domain within the United States. You can copy, 
modify, distribute, and perform the work, even for commercial 
purposes, all without asking permission. Additionally, USGS 
waives copyright and related rights in the work worldwide 
through CC0 1.0 Universal Public Domain Dedication 
(https://creativecommons.org/publicdomain/zero/1.0/).

The following GNU Lesser General Public License (LGPL) libraries
are used in this USGS product:

    SPARSKIT version 2.0
      ilut, luson, and qsplit 
      (https://www-users.cse.umn.edu/~saad/software/SPARSKIT/)

    RCM - Reverse Cuthill McKee Ordering
      (https://people.math.sc.edu/Burkardt/f_src/rcm/rcm.html)

    BLAS - Basic Linear Algebra Subprograms Level 1
      (https://people.math.sc.edu/Burkardt/f_src/blas1_d/blas1_d.html)

    SPARSEKIT - Sparse Matrix Utility Package
      amux, dperm, dvperm, rperm, and cperm
      (https://people.sc.fsu.edu/~jburkardt/f77_src/sparsekit/sparsekit.html)

The following BSD-3 License libraries are used in this USGS product:

    Modern Fortran DAG Library
      Copyright (c) 2018, Jacob Williams
      All rights reserved.
      (https://github.com/jacobwilliams/daglib)

MODFLOW 6 compiler options: /Isrc\libmf6core.a.p /Isrc /I..\src
/Isrc\libmf6_external.a.p /MTd /nologo /warn:general /warn:truncated_source
/stand:f08 /Zi /traceback /O2 /fpe:0 /heap-arrays:0 /traceback /fpp
/Qdiag-disable:7416 /Qdiag-disable:7025 /Qdiag-disable:5268
/Fdsrc\libmf6core.a.p\Utilities_compilerversion.F90.pdb
/module:src\libmf6core.a.p
/Fosrc/libmf6core.a.p/Utilities_compilerversion.F90.obj /c

System command used to initiate simulation:
mf6.exe

MODFLOW was compiled using uniform precision.

Real Variables
  KIND: 8
  TINY (smallest non-zero value):    2.225074-308
  HUGE (largest value):    1.797693+308
  PRECISION: 15
  SIZE IN BITS: 64

Integer Variables
  KIND: 4
  HUGE (largest value): 2147483647
  SIZE IN BITS: 32

Long Integer Variables
  KIND: 8
  HUGE (largest value): 9223372036854775807
  SIZE IN BITS: 64

Logical Variables
  KIND: 4
  SIZE IN BITS: 32
 
 NAMEFILE OPTIONS:
    STRESS PACKAGE INPUT WILL BE PRINTED FOR ALL MODEL STRESS PACKAGES
    PACKAGE FLOWS WILL BE PRINTED FOR ALL MODEL PACKAGES
    FLOWS WILL BE SAVED TO BUDGET FILE SPECIFIED IN OUTPUT CONTROL
 END NAMEFILE OPTIONS:

 DIS -- STRUCTURED GRID DISCRETIZATION PACKAGE, VERSION 2 : 3/27/2014 - INPUT READ FROM MEMPATH: __INPUT__/GWF_MODEL/DIS                           


 NPF -- NODE PROPERTY FLOW PACKAGE, VERSION 1, 3/30/2015 INPUT READ FROM MEMPATH: __INPUT__/GWF_MODEL/NPF                           

 Setting Discretization Options
    Model length unit [0=UND, 1=FEET, 2=METERS, 3=CENTIMETERS] set as 2
 End Setting Discretization Options

 Setting Discretization Dimensions
    NLAY = 1
    NROW = 50
    NCOL = 50
 End Setting Discretization Dimensions

 Setting Discretization Griddata
    DELR set from input file
    DELC set from input file
    TOP set from input file
    BOTM set from input file
    IDOMAIN set from input file
 End Setting Discretization Griddata

 Setting NPF Options
    Cell-by-cell flow information will be saved to binary file whenever ICBCFL is not zero.
 End Setting NPF Options

 Setting NPF Griddata
    ICELLTYPE set from input file
    K set from input file
    K33 not provided.  Setting K33 = K.
    K22 not provided.  Setting K22 = K.
 End Setting NPF Griddata


 WEL   -- WEL PACKAGE, VERSION 8, 2/22/2014 INPUT READ FROM UNIT 1007

 PROCESSING WEL OPTIONS
 END OF WEL OPTIONS

 PROCESSING WEL DIMENSIONS
    MAXBOUND =       2
 END OF WEL DIMENSIONS

 CHD   -- CHD PACKAGE, VERSION 8, 2/22/2014 INPUT READ FROM UNIT 1008

 PROCESSING CHD OPTIONS
 END OF CHD OPTIONS

 PROCESSING CHD DIMENSIONS
    MAXBOUND =     100
 END OF CHD DIMENSIONS

 IC -- INITIAL CONDITIONS PACKAGE, VERSION 8, 3/28/2015 INPUT READ FROM UNIT 1005
 PROCESSING GRIDDATA

     INITIAL HEAD =   20.00000     FOR LAYER 1
 END PROCESSING GRIDDATA
    BINARY GRID INFORMATION WILL BE WRITTEN TO:
      UNIT NUMBER: 1012
      FILE NAME: ex1_steady.dis.grb

 OPENED ex1_steady.dis.grb
 FILE TYPE:DATA(BINARY)   UNIT 1012   STATUS:REPLACE             
 FORMAT:UNFORMATTED            ACCESS:STREAM              
 ACTION:READWRITE           

      THE LAST TIME STEP WILL BE PRINTED
      THE LAST TIME STEP WILL BE PRINTED

 PROCESSING OC OPTIONS

    BUDGET INFORMATION WILL BE WRITTEN TO:
      UNIT NUMBER: 1013
      FILE NAME: ex1_steady.ccf

 OPENED ex1_steady.ccf
 FILE TYPE:DATA(BINARY)   UNIT 1013   STATUS:REPLACE             
 FORMAT:UNFORMATTED            ACCESS:STREAM              
 ACTION:READWRITE           

    HEAD INFORMATION WILL BE WRITTEN TO:
      UNIT NUMBER: 1014
      FILE NAME: ex1_steady.hed

 OPENED ex1_steady.hed
 FILE TYPE:DATA(BINARY)   UNIT 1014   STATUS:REPLACE             
 FORMAT:UNFORMATTED            ACCESS:STREAM              
 ACTION:READWRITE           

 END OF OC OPTIONS

start timestep kper="1" kstp="1" mode="normal"


 BEGIN READING OUTPUT CONTROL FOR STRESS PERIOD 1
      ALL TIME STEPS WILL BE SAVED
      ALL TIME STEPS WILL BE SAVED

 END READING OUTPUT CONTROL FOR STRESS PERIOD 1
 ---------------------------------------------------
  WEL NO.    LAYER    ROW     COL     STRESS RATE   
 ---------------------------------------------------
     1         1      12      13     5000.00000     
     2         1      31      39    -3000.00000     
 ---------------------------------------------------


 ---------------------------------------------------
  CHD NO.    LAYER    ROW     COL         HEAD      
 ---------------------------------------------------
     1         1       1       1     40.0000000     
     2         1       2       1     40.0000000     
     3         1       3       1     40.0000000     
     4         1       4       1     40.0000000     
     5         1       5       1     40.0000000     
     6         1       6       1     40.0000000     
     7         1       7       1     40.0000000     
     8         1       8       1     40.0000000     
     9         1       9       1     40.0000000     
     10        1      10       1     40.0000000     
     11        1      11       1     40.0000000     
     12        1      12       1     40.0000000     
     13        1      13       1     40.0000000     
     14        1      14       1     40.0000000     
     15        1      15       1     40.0000000     
     16        1      16       1     40.0000000     
     17        1      17       1     40.0000000     
     18        1      18       1     40.0000000     
     19        1      19       1     40.0000000     
     20        1      20       1     40.0000000     
     21        1      21       1     40.0000000     
     22        1      22       1     40.0000000     
     23        1      23       1     40.0000000     
     24        1      24       1     40.0000000     
     25        1      25       1     40.0000000     
     26        1      26       1     40.0000000     
     27        1      27       1     40.0000000     
     28        1      28       1     40.0000000     
     29        1      29       1     40.0000000     
     30        1      30       1     40.0000000     
     31        1      31       1     40.0000000     
     32        1      32       1     40.0000000     
     33        1      33       1     40.0000000     
     34        1      34       1     40.0000000     
     35        1      35       1     40.0000000     
     36        1      36       1     40.0000000     
     37        1      37       1     40.0000000     
     38        1      38       1     40.0000000     
     39        1      39       1     40.0000000     
     40        1      40       1     40.0000000     
     41        1      41       1     40.0000000     
     42        1      42       1     40.0000000     
     43        1      43       1     40.0000000     
     44        1      44       1     40.0000000     
     45        1      45       1     40.0000000     
     46        1      46       1     40.0000000     
     47        1      47       1     40.0000000     
     48        1      48       1     40.0000000     
     49        1      49       1     40.0000000     
     50        1      50       1     40.0000000     
     51        1       1      50     60.0000000     
     52        1       2      50     60.0000000     
     53        1       3      50     60.0000000     
     54        1       4      50     60.0000000     
     55        1       5      50     60.0000000     
     56        1       6      50     60.0000000     
     57        1       7      50     60.0000000     
     58        1       8      50     60.0000000     
     59        1       9      50     60.0000000     
     60        1      10      50     60.0000000     
     61        1      11      50     60.0000000     
     62        1      12      50     60.0000000     
     63        1      13      50     60.0000000     
     64        1      14      50     60.0000000     
     65        1      15      50     60.0000000     
     66        1      16      50     60.0000000     
     67        1      17      50     60.0000000     
     68        1      18      50     60.0000000     
     69        1      19      50     60.0000000     
     70        1      20      50     60.0000000     
     71        1      21      50     60.0000000     
     72        1      22      50     60.0000000     
     73        1      23      50     60.0000000     
     74        1      24      50     60.0000000     
     75        1      25      50     60.0000000     
     76        1      26      50     60.0000000     
     77        1      27      50     60.0000000     
     78        1      28      50     60.0000000     
     79        1      29      50     60.0000000     
     80        1      30      50     60.0000000     
     81        1      31      50     60.0000000     
     82        1      32      50     60.0000000     
     83        1      33      50     60.0000000     
     84        1      34      50     60.0000000     
     85        1      35      50     60.0000000     
     86        1      36      50     60.0000000     
     87        1      37      50     60.0000000     
     88        1      38      50     60.0000000     
     89        1      39      50     60.0000000     
     90        1      40      50     60.0000000     
     91        1      41      50     60.0000000     
     92        1      42      50     60.0000000     
     93        1      43      50     60.0000000     
     94        1      44      50     60.0000000     
     95        1      45      50     60.0000000     
     96        1      46      50     60.0000000     
     97        1      47      50     60.0000000     
     98        1      48      50     60.0000000     
     99        1      49      50     60.0000000     
    100        1      50      50     60.0000000     
 ---------------------------------------------------


 UBDSV1 SAVING     FLOW-JA-FACE ON UNIT   1013 AT TIME STEP      1, STRESS PERIOD      1
 UBDSV06 SAVING              WEL IN MODEL GWF_MODEL        PACKAGE GWF_MODEL       CONNECTED TO MODEL GWF_MODEL        PACKAGE WEL-1            ON UNIT   1013 AT TIME STEP      1, STRESS PERIOD      1
 UBDSV06 SAVING              CHD IN MODEL GWF_MODEL        PACKAGE GWF_MODEL       CONNECTED TO MODEL GWF_MODEL        PACKAGE CHD-1            ON UNIT   1013 AT TIME STEP      1, STRESS PERIOD      1

    CALCULATED INTERCELL FLOW FOR PERIOD 1 STEP 1
(1,1,1): (1,1,2) 932.085 (1,2,1) 0.00000
(1,1,2): (1,1,1) -932.085 (1,1,3) 931.196 (1,2,2) 0.888957
(1,1,3): (1,1,2) -931.196 (1,1,4) 929.358 (1,2,3) 1.82587
(1,1,4): (1,1,3) -929.358 (1,1,5) 926.490 (1,2,4) 2.85197
(1,1,5): (1,1,4) -926.490 (1,1,6) 922.473 (1,2,5) 4.00049
(1,1,6): (1,1,5) -922.473 (1,1,7) 917.169 (1,2,6) 5.28941
(1,1,7): (1,1,6) -917.169 (1,1,8) 910.444 (1,2,7) 6.71318
(1,1,8): (1,1,7) -910.444 (1,1,9) 902.200 (1,2,8) 8.23425
(1,1,9): (1,1,8) -902.200 (1,1,10) 892.416 (1,2,9) 9.77540
(1,1,10): (1,1,9) -892.416 (1,1,11) 881.191 (1,2,10) 11.2165
(1,1,11): (1,1,10) -881.191 (1,1,12) 868.780 (1,2,11) 12.4035
(1,1,12): (1,1,11) -868.780 (1,1,13) 855.598 (1,2,12) 13.1756
(1,1,13): (1,1,12) -855.598 (1,1,14) 842.183 (1,2,13) 13.4083
(1,1,14): (1,1,13) -842.183 (1,1,15) 829.121 (1,2,14) 13.0558
(1,1,15): (1,1,14) -829.121 (1,1,16) 816.945 (1,2,15) 12.1688
(1,1,16): (1,1,15) -816.945 (1,1,17) 806.062 (1,2,16) 10.8758
(1,1,17): (1,1,16) -806.062 (1,1,18) 796.717 (1,2,17) 9.34082
(1,1,18): (1,1,17) -796.717 (1,1,19) 788.993 (1,2,18) 7.72244
(1,1,19): (1,1,18) -788.993 (1,1,20) 782.847 (1,2,19) 6.14708
(1,1,20): (1,1,19) -782.847 (1,1,21) 778.151 (1,2,20) 4.69941
(1,1,21): (1,1,20) -778.151 (1,1,22) 774.733 (1,2,21) 3.42516
(1,1,22): (1,1,21) -774.733 (1,1,23) 772.401 (1,2,22) 2.33996
(1,1,23): (1,1,22) -772.401 (1,1,24) 770.970 (1,2,23) 1.43940
(1,1,24): (1,1,23) -770.970 (1,1,25) 770.271 (1,2,24) 0.707526
(1,1,25): (1,1,24) -770.271 (1,1,26) 770.155 (1,2,25) 0.123235
(1,1,26): (1,1,25) -770.155 (1,1,27) 770.498 (1,2,26) -0.335636
(1,1,27): (1,1,26) -770.498 (1,1,28) 771.195 (1,2,27) -0.690142
(1,1,28): (1,1,27) -771.195 (1,1,29) 772.162 (1,2,28) -0.959410
(1,1,29): (1,1,28) -772.162 (1,1,30) 773.333 (1,2,29) -1.16023
(1,1,30): (1,1,29) -773.333 (1,1,31) 774.653 (1,2,30) -1.30648
(1,1,31): (1,1,30) -774.653 (1,1,32) 776.076 (1,2,31) -1.40880
(1,1,32): (1,1,31) -776.076 (1,1,33) 777.568 (1,2,32) -1.47514
(1,1,33): (1,1,32) -777.568 (1,1,34) 779.097 (1,2,33) -1.51196
(1,1,34): (1,1,33) -779.097 (1,1,35) 780.642 (1,2,34) -1.52488
(1,1,35): (1,1,34) -780.642 (1,1,36) 782.179 (1,2,35) -1.51796
(1,1,36): (1,1,35) -782.179 (1,1,37) 783.691 (1,2,36) -1.49316
(1,1,37): (1,1,36) -783.691 (1,1,38) 785.159 (1,2,37) -1.45125
(1,1,38): (1,1,37) -785.159 (1,1,39) 786.569 (1,2,38) -1.39363
(1,1,39): (1,1,38) -786.569 (1,1,40) 787.911 (1,2,39) -1.32267
(1,1,40): (1,1,39) -787.911 (1,1,41) 789.172 (1,2,40) -1.24036
(1,1,41): (1,1,40) -789.172 (1,1,42) 790.340 (1,2,41) -1.14726
(1,1,42): (1,1,41) -790.340 (1,1,43) 791.404 (1,2,42) -1.04350
(1,1,43): (1,1,42) -791.404 (1,1,44) 792.357 (1,2,43) -0.930413
(1,1,44): (1,1,43) -792.357 (1,1,45) 793.191 (1,2,44) -0.810316
(1,1,45): (1,1,44) -793.191 (1,1,46) 793.900 (1,2,45) -0.684706
(1,1,46): (1,1,45) -793.900 (1,1,47) 794.475 (1,2,46) -0.553542
(1,1,47): (1,1,46) -794.475 (1,1,48) 794.911 (1,2,47) -0.416714
(1,1,48): (1,1,47) -794.911 (1,1,49) 795.207 (1,2,48) -0.275732
(1,1,49): (1,1,48) -795.207 (1,1,50) 795.362 (1,2,49) -0.134307
(1,1,50): (1,1,49) -795.362 (1,2,50) 0.00000
(1,2,1): (1,1,1) 0.00000 (1,2,2) 932.974 (1,3,1) 0.00000
(1,2,2): (1,1,2) -0.888957 (1,2,1) -932.974 (1,2,3) 932.133 (1,3,2) 1.74350
(1,2,3): (1,1,3) -1.82587 (1,2,2) -932.133 (1,2,4) 930.384 (1,3,3) 3.58184
(1,2,4): (1,1,4) -2.85197 (1,2,3) -930.384 (1,2,5) 927.639 (1,3,4) 5.60291
(1,2,5): (1,1,5) -4.00049 (1,2,4) -927.639 (1,2,6) 923.762 (1,3,5) 7.88043
(1,2,6): (1,1,6) -5.28941 (1,2,5) -923.762 (1,2,7) 918.593 (1,3,6) 10.4607
(1,2,7): (1,1,7) -6.71318 (1,2,6) -918.593 (1,2,8) 911.965 (1,3,7) 13.3443
(1,2,8): (1,1,8) -8.23425 (1,2,7) -911.965 (1,2,9) 903.741 (1,3,8) 16.4647
(1,2,9): (1,1,9) -9.77540 (1,2,8) -903.741 (1,2,10) 893.857 (1,3,9) 19.6686
(1,2,10): (1,1,10) -11.2165 (1,2,9) -893.857 (1,2,11) 882.378 (1,3,10) 22.7051
(1,2,11): (1,1,11) -12.4035 (1,2,10) -882.378 (1,2,12) 869.552 (1,3,11) 25.2397
(1,2,12): (1,1,12) -13.1756 (1,2,11) -869.552 (1,2,13) 855.831 (1,3,12) 26.9096
(1,2,13): (1,1,13) -13.4083 (1,2,12) -855.831 (1,2,14) 841.831 (1,3,13) 27.4235
(1,2,14): (1,1,14) -13.0558 (1,2,13) -841.831 (1,2,15) 828.234 (1,3,14) 26.6696
(1,2,15): (1,1,15) -12.1688 (1,2,14) -828.234 (1,2,16) 815.652 (1,3,15) 24.7671
(1,2,16): (1,1,16) -10.8758 (1,2,15) -815.652 (1,2,17) 804.527 (1,3,16) 22.0145
(1,2,17): (1,1,17) -9.34082 (1,2,16) -804.527 (1,2,18) 795.099 (1,3,17) 18.7826
(1,2,18): (1,1,18) -7.72244 (1,2,17) -795.099 (1,2,19) 787.417 (1,3,18) 15.4159
(1,2,19): (1,1,19) -6.14708 (1,2,18) -787.417 (1,2,20) 781.399 (1,3,19) 12.1774
(1,2,20): (1,1,20) -4.69941 (1,2,19) -781.399 (1,2,21) 776.877 (1,3,20) 9.23430
(1,2,21): (1,1,21) -3.42516 (1,2,20) -776.877 (1,2,22) 773.648 (1,3,21) 6.66968
(1,2,22): (1,1,22) -2.33996 (1,2,21) -773.648 (1,2,23) 771.501 (1,3,22) 4.50476
(1,2,23): (1,1,23) -1.43940 (1,2,22) -771.501 (1,2,24) 770.239 (1,3,23) 2.72151
(1,2,24): (1,1,24) -0.707526 (1,2,23) -770.239 (1,2,25) 769.687 (1,3,24) 1.28095
(1,2,25): (1,1,25) -0.123235 (1,2,24) -769.687 (1,2,26) 769.696 (1,3,25) 0.135801
(1,2,26): (1,1,26) 0.335636 (1,2,25) -769.696 (1,2,27) 770.143 (1,3,26) -0.761433
(1,2,27): (1,1,27) 0.690142 (1,2,26) -770.143 (1,2,28) 770.925 (1,3,27) -1.45413
(1,2,28): (1,1,28) 0.959410 (1,2,27) -770.925 (1,2,29) 771.961 (1,3,28) -1.98007
(1,2,29): (1,1,29) 1.16023 (1,2,28) -771.961 (1,2,30) 773.187 (1,3,29) -2.37150
(1,2,30): (1,1,30) 1.30648 (1,2,29) -773.187 (1,2,31) 774.550 (1,3,30) -2.65541
(1,2,31): (1,1,31) 1.40880 (1,2,30) -774.550 (1,2,32) 776.010 (1,3,31) -2.85334
(1,2,32): (1,1,32) 1.47514 (1,2,31) -776.010 (1,2,33) 777.531 (1,3,32) -2.98142
(1,2,33): (1,1,33) 1.51196 (1,2,32) -777.531 (1,2,34) 779.085 (1,3,33) -3.05172
(1,2,34): (1,1,34) 1.52488 (1,2,33) -779.085 (1,2,35) 780.649 (1,3,34) -3.07403
(1,2,35): (1,1,35) 1.51796 (1,2,34) -780.649 (1,2,36) 782.204 (1,3,35) -3.05643
(1,2,36): (1,1,36) 1.49316 (1,2,35) -782.204 (1,2,37) 783.733 (1,3,36) -3.00449
(1,2,37): (1,1,37) 1.45125 (1,2,36) -783.733 (1,2,38) 785.216 (1,3,37) -2.92095
(1,2,38): (1,1,38) 1.39363 (1,2,37) -785.216 (1,2,39) 786.640 (1,3,38) -2.80747
(1,2,39): (1,1,39) 1.32267 (1,2,38) -786.640 (1,2,40) 787.993 (1,3,39) -2.66672
(1,2,40): (1,1,40) 1.24036 (1,2,39) -787.993 (1,2,41) 789.265 (1,3,40) -2.50232
(1,2,41): (1,1,41) 1.14726 (1,2,40) -789.265 (1,2,42) 790.443 (1,3,41) -2.31687
(1,2,42): (1,1,42) 1.04350 (1,2,41) -790.443 (1,2,43) 791.517 (1,3,42) -2.11119
(1,2,43): (1,1,43) 0.930413 (1,2,42) -791.517 (1,2,44) 792.477 (1,3,43) -1.88618
(1,2,44): (1,1,44) 0.810316 (1,2,43) -792.477 (1,2,45) 793.317 (1,3,44) -1.64461
(1,2,45): (1,1,45) 0.684706 (1,2,44) -793.317 (1,2,46) 794.031 (1,3,45) -1.39032
(1,2,46): (1,1,46) 0.553542 (1,2,45) -794.031 (1,2,47) 794.612 (1,3,46) -1.12594
(1,2,47): (1,1,47) 0.416714 (1,2,46) -794.612 (1,2,48) 795.052 (1,3,47) -0.852522
(1,2,48): (1,1,48) 0.275732 (1,2,47) -795.052 (1,2,49) 795.348 (1,3,48) -0.571447
(1,2,49): (1,1,49) 0.134307 (1,2,48) -795.348 (1,2,50) 795.496 (1,3,49) -0.285969
(1,2,50): (1,1,50) 0.00000 (1,2,49) -795.496 (1,3,50) 0.00000
(1,3,1): (1,2,1) 0.00000 (1,3,2) 934.717 (1,4,1) 0.00000
(1,3,2): (1,2,2) -1.74350 (1,3,1) -934.717 (1,3,3) 933.971 (1,4,2) 2.50207
(1,3,3): (1,2,3) -3.58184 (1,3,2) -933.971 (1,3,4) 932.405 (1,4,3) 5.15404
(1,3,4): (1,2,4) -5.60291 (1,3,3) -932.405 (1,3,5) 929.916 (1,4,4) 8.09811
(1,3,5): (1,2,5) -7.88043 (1,3,4) -929.916 (1,3,6) 926.342 (1,4,5) 11.4598
(1,3,6): (1,2,6) -10.4607 (1,3,5) -926.342 (1,3,7) 921.477 (1,4,6) 15.3304
(1,3,7): (1,2,7) -13.3443 (1,3,6) -921.477 (1,3,8) 915.086 (1,4,7) 19.7382
(1,3,8): (1,2,8) -16.4647 (1,3,7) -915.086 (1,3,9) 906.945 (1,4,8) 24.6103
(1,3,9): (1,2,9) -19.6686 (1,3,8) -906.945 (1,3,10) 896.893 (1,4,9) 29.7284
(1,3,10): (1,2,10) -22.7051 (1,3,9) -896.893 (1,3,11) 884.912 (1,4,10) 34.6953
(1,3,11): (1,2,11) -25.2397 (1,3,10) -884.912 (1,3,12) 871.222 (1,4,11) 38.9393
(1,3,12): (1,2,12) -26.9096 (1,3,11) -871.222 (1,3,13) 856.344 (1,4,12) 41.7975
(1,3,13): (1,2,13) -27.4235 (1,3,12) -856.344 (1,3,14) 841.077 (1,4,13) 42.7045
(1,3,14): (1,2,14) -26.6696 (1,3,13) -841.077 (1,3,15) 826.331 (1,4,14) 41.4318
(1,3,15): (1,2,15) -24.7671 (1,3,14) -826.331 (1,3,16) 812.899 (1,4,15) 38.2167
(1,3,16): (1,2,16) -22.0145 (1,3,15) -812.899 (1,3,17) 801.295 (1,4,16) 33.6349
(1,3,17): (1,2,17) -18.7826 (1,3,16) -801.295 (1,3,18) 791.732 (1,4,17) 28.3615
(1,3,18): (1,2,18) -15.4159 (1,3,17) -791.732 (1,3,19) 784.179 (1,4,18) 22.9828
(1,3,19): (1,2,19) -12.1774 (1,3,18) -784.179 (1,3,20) 778.456 (1,4,19) 17.9129
(1,3,20): (1,2,20) -9.23430 (1,3,19) -778.456 (1,3,21) 774.313 (1,4,20) 13.3898
(1,3,21): (1,2,21) -6.66968 (1,3,20) -774.313 (1,3,22) 771.483 (1,4,21) 9.51206
(1,3,22): (1,2,22) -4.50476 (1,3,21) -771.483 (1,3,23) 769.717 (1,4,22) 6.28439
(1,3,23): (1,2,23) -2.72151 (1,3,22) -769.717 (1,3,24) 768.798 (1,4,23) 3.65733
(1,3,24): (1,2,24) -1.28095 (1,3,23) -768.798 (1,3,25) 768.542 (1,4,24) 1.55620
(1,3,25): (1,2,25) -0.135801 (1,3,24) -768.542 (1,3,26) 768.799 (1,4,25) -0.100524
(1,3,26): (1,2,26) 0.761433 (1,3,25) -768.799 (1,3,27) 769.450 (1,4,26) -1.39052
(1,3,27): (1,2,27) 1.45413 (1,3,26) -769.450 (1,3,28) 770.399 (1,4,27) -2.38218
(1,3,28): (1,2,28) 1.98007 (1,3,27) -770.399 (1,3,29) 771.570 (1,4,28) -3.13288
(1,3,29): (1,2,29) 2.37150 (1,3,28) -771.570 (1,3,30) 772.903 (1,4,29) -3.68976
(1,3,30): (1,2,30) 2.65541 (1,3,29) -772.903 (1,3,31) 774.352 (1,4,30) -4.09137
(1,3,31): (1,2,31) 2.85334 (1,3,30) -774.352 (1,3,32) 775.882 (1,4,31) -4.36882
(1,3,32): (1,2,32) 2.98142 (1,3,31) -775.882 (1,3,33) 777.461 (1,4,32) -4.54601
(1,3,33): (1,2,33) 3.05172 (1,3,32) -777.461 (1,3,34) 779.062 (1,4,33) -4.64045
(1,3,34): (1,2,34) 3.07403 (1,3,33) -779.062 (1,3,35) 780.666 (1,4,34) -4.66532
(1,3,35): (1,2,35) 3.05643 (1,3,34) -780.666 (1,3,36) 782.256 (1,4,35) -4.63146
(1,3,36): (1,2,36) 3.00449 (1,3,35) -782.256 (1,3,37) 783.816 (1,4,36) -4.54744
(1,3,37): (1,2,37) 2.92095 (1,3,36) -783.816 (1,3,38) 785.330 (1,4,37) -4.41853
(1,3,38): (1,2,38) 2.80747 (1,3,37) -785.330 (1,3,39) 786.781 (1,4,38) -4.24709
(1,3,39): (1,2,39) 2.66672 (1,3,38) -786.781 (1,3,40) 788.158 (1,4,39) -4.03528
(1,3,40): (1,2,40) 2.50232 (1,3,39) -788.158 (1,3,41) 789.450 (1,4,40) -3.78692
(1,3,41): (1,2,41) 2.31687 (1,3,40) -789.450 (1,3,42) 790.649 (1,4,41) -3.50650
(1,3,42): (1,2,42) 2.11119 (1,3,41) -790.649 (1,3,43) 791.742 (1,4,42) -3.19682
(1,3,43): (1,2,43) 1.88618 (1,3,42) -791.742 (1,3,44) 792.719 (1,4,43) -2.85906
(1,3,44): (1,2,44) 1.64461 (1,3,43) -792.719 (1,3,45) 793.571 (1,4,44) -2.49531
(1,3,45): (1,2,45) 1.39032 (1,3,44) -793.571 (1,3,46) 794.295 (1,4,45) -2.11010
(1,3,46): (1,2,46) 1.12594 (1,3,45) -794.295 (1,3,47) 794.885 (1,4,46) -1.70858
(1,3,47): (1,2,47) 0.852522 (1,3,46) -794.885 (1,3,48) 795.333 (1,4,47) -1.29435
(1,3,48): (1,2,48) 0.571447 (1,3,47) -795.333 (1,3,49) 795.633 (1,4,48) -0.869561
(1,3,49): (1,2,49) 0.285969 (1,3,48) -795.633 (1,3,50) 795.782 (1,4,49) -0.436850
(1,3,50): (1,2,50) 0.00000 (1,3,49) -795.782 (1,4,50) 0.00000
(1,4,1): (1,3,1) 0.00000 (1,4,2) 937.219 (1,5,1) 0.00000
(1,4,2): (1,3,2) -2.50207 (1,4,1) -937.219 (1,4,3) 936.623 (1,5,2) 3.11064
(1,4,3): (1,3,3) -5.15404 (1,4,2) -936.623 (1,4,4) 935.349 (1,5,3) 6.43336
(1,4,4): (1,3,4) -8.09811 (1,4,3) -935.349 (1,4,5) 933.278 (1,5,4) 10.1754
(1,4,5): (1,3,5) -11.4598 (1,4,4) -933.278 (1,4,6) 930.213 (1,5,5) 14.5316
(1,4,6): (1,3,6) -15.3304 (1,4,5) -930.213 (1,4,7) 925.884 (1,5,6) 19.6647
(1,4,7): (1,3,7) -19.7382 (1,4,6) -925.884 (1,4,8) 919.958 (1,5,7) 25.6690
(1,4,8): (1,3,8) -24.6103 (1,4,7) -919.958 (1,4,9) 912.063 (1,5,8) 32.5093
(1,4,9): (1,3,9) -29.7284 (1,4,8) -912.063 (1,4,10) 901.860 (1,5,9) 39.9383
(1,4,10): (1,3,10) -34.6953 (1,4,9) -901.860 (1,4,11) 889.156 (1,5,10) 47.4082
(1,4,11): (1,3,11) -38.9393 (1,4,10) -889.156 (1,4,12) 874.080 (1,5,11) 54.0244
(1,4,12): (1,3,12) -41.7975 (1,4,11) -874.080 (1,4,13) 857.251 (1,5,12) 58.6353
(1,4,13): (1,3,13) -42.7045 (1,4,12) -857.251 (1,4,14) 839.804 (1,5,13) 60.1627
(1,4,14): (1,3,14) -41.4318 (1,4,13) -839.804 (1,4,15) 823.116 (1,5,14) 58.1343
(1,4,15): (1,3,15) -38.2167 (1,4,14) -823.116 (1,4,16) 808.317 (1,5,15) 53.0324
(1,4,16): (1,3,16) -33.6349 (1,4,15) -808.317 (1,4,17) 796.022 (1,5,16) 45.9479
(1,4,17): (1,3,17) -28.3615 (1,4,16) -796.022 (1,4,18) 786.353 (1,5,17) 38.0472
(1,4,18): (1,3,18) -22.9828 (1,4,17) -786.353 (1,4,19) 779.109 (1,5,18) 30.2429
(1,4,19): (1,3,19) -17.9129 (1,4,18) -779.109 (1,4,20) 773.933 (1,5,19) 23.1033
(1,4,20): (1,3,20) -13.3898 (1,4,19) -773.933 (1,4,21) 770.435 (1,5,20) 16.9009
(1,4,21): (1,3,21) -9.51206 (1,4,20) -770.435 (1,4,22) 768.255 (1,5,21) 11.7042
(1,4,22): (1,3,22) -6.28439 (1,4,21) -768.255 (1,4,23) 767.090 (1,5,22) 7.46175
(1,4,23): (1,3,23) -3.65733 (1,4,22) -767.090 (1,4,24) 766.697 (1,5,23) 4.06431
(1,4,24): (1,3,24) -1.55620 (1,4,23) -766.697 (1,4,25) 766.885 (1,5,24) 1.38342
(1,4,25): (1,3,25) 0.100524 (1,4,24) -766.885 (1,4,26) 767.509 (1,5,25) -0.706884
(1,4,26): (1,3,26) 1.39052 (1,4,25) -767.509 (1,4,27) 768.459 (1,5,26) -2.31955
(1,4,27): (1,3,27) 2.38218 (1,4,26) -768.459 (1,4,28) 769.649 (1,5,27) -3.55029
(1,4,28): (1,3,28) 3.13288 (1,4,27) -769.649 (1,4,29) 771.013 (1,5,28) -4.47688
(1,4,29): (1,3,29) 3.68976 (1,4,28) -771.013 (1,4,30) 772.501 (1,5,29) -5.16090
(1,4,30): (1,3,30) 4.09137 (1,4,29) -772.501 (1,4,31) 774.075 (1,5,30) -5.65091
(1,4,31): (1,3,31) 4.36882 (1,4,30) -774.075 (1,4,32) 775.705 (1,5,31) -5.98539
(1,4,32): (1,3,32) 4.54601 (1,4,31) -775.705 (1,4,33) 777.366 (1,5,32) -6.19426
(1,4,33): (1,3,33) 4.64045 (1,4,32) -777.366 (1,4,34) 779.037 (1,5,33) -6.29960
(1,4,34): (1,3,34) 4.66532 (1,4,33) -779.037 (1,4,35) 780.700 (1,5,34) -6.31733
(1,4,35): (1,3,35) 4.63146 (1,4,34) -780.700 (1,4,36) 782.340 (1,5,35) -6.25979
(1,4,36): (1,3,36) 4.54744 (1,4,35) -782.340 (1,4,37) 783.945 (1,5,36) -6.13732
(1,4,37): (1,3,37) 4.41853 (1,4,36) -783.945 (1,4,38) 785.501 (1,5,37) -5.95749
(1,4,38): (1,3,38) 4.24709 (1,4,37) -785.501 (1,4,39) 786.993 (1,5,38) -5.72420
(1,4,39): (1,3,39) 4.03528 (1,4,38) -786.993 (1,4,40) 788.406 (1,5,39) -5.43917
(1,4,40): (1,3,40) 3.78692 (1,4,39) -788.406 (1,4,41) 789.731 (1,5,40) -5.10512
(1,4,41): (1,3,41) 3.50650 (1,4,40) -789.731 (1,4,42) 790.959 (1,5,41) -4.72696
(1,4,42): (1,3,42) 3.19682 (1,4,41) -790.959 (1,4,43) 792.080 (1,5,42) -4.30965
(1,4,43): (1,3,43) 2.85906 (1,4,42) -792.080 (1,4,44) 793.083 (1,5,43) -3.85611
(1,4,44): (1,3,44) 2.49531 (1,4,43) -793.083 (1,4,45) 793.957 (1,5,44) -3.36833
(1,4,45): (1,3,45) 2.11010 (1,4,44) -793.957 (1,4,46) 794.697 (1,5,45) -2.85018
(1,4,46): (1,3,46) 1.70858 (1,4,45) -794.697 (1,4,47) 795.299 (1,5,46) -2.30784
(1,4,47): (1,3,47) 1.29435 (1,4,46) -795.299 (1,4,48) 795.758 (1,5,47) -1.74757
(1,4,48): (1,3,48) 0.869561 (1,4,47) -795.758 (1,4,49) 796.066 (1,5,48) -1.17384
(1,4,49): (1,3,49) 0.436850 (1,4,48) -796.066 (1,4,50) 796.219 (1,5,49) -0.589994
(1,4,50): (1,3,50) 0.00000 (1,4,49) -796.219 (1,5,50) 0.00000
(1,5,1): (1,4,1) 0.00000 (1,5,2) 940.330 (1,6,1) 0.00000
(1,5,2): (1,4,2) -3.11064 (1,5,1) -940.330 (1,5,3) 939.946 (1,6,2) 3.50722
(1,5,3): (1,4,3) -6.43336 (1,5,2) -939.946 (1,5,4) 939.091 (1,6,3) 7.29278
(1,5,4): (1,4,4) -10.1754 (1,5,3) -939.091 (1,5,5) 937.634 (1,6,4) 11.6381
(1,5,5): (1,4,5) -14.5316 (1,5,4) -937.634 (1,5,6) 935.346 (1,6,5) 16.8267
(1,5,6): (1,4,6) -19.6647 (1,5,5) -935.346 (1,5,7) 931.889 (1,6,6) 23.1295
(1,5,7): (1,4,7) -25.6690 (1,5,6) -931.889 (1,5,8) 926.798 (1,6,7) 30.7654
(1,5,8): (1,4,8) -32.5093 (1,5,7) -926.798 (1,5,9) 919.492 (1,6,8) 39.8198
(1,5,9): (1,4,9) -39.9383 (1,5,8) -919.492 (1,5,10) 909.330 (1,6,9) 50.1067
(1,5,10): (1,4,10) -47.4082 (1,5,9) -909.330 (1,5,11) 895.772 (1,6,10) 60.9746
(1,5,11): (1,4,11) -54.0244 (1,5,10) -895.772 (1,5,12) 878.691 (1,6,11) 71.1149
(1,5,12): (1,4,12) -58.6353 (1,5,11) -878.691 (1,5,13) 858.779 (1,6,12) 78.5563
(1,5,13): (1,4,13) -60.1627 (1,5,12) -858.779 (1,5,14) 837.776 (1,6,13) 81.1752
(1,5,14): (1,4,14) -58.1343 (1,5,13) -837.776 (1,5,15) 818.014 (1,6,14) 77.9079
(1,5,15): (1,4,15) -53.0324 (1,5,14) -818.014 (1,5,16) 801.233 (1,6,15) 69.8292
(1,5,16): (1,4,16) -45.9479 (1,5,15) -801.233 (1,5,17) 788.121 (1,6,16) 59.0763
(1,5,17): (1,4,17) -38.0472 (1,5,16) -788.121 (1,5,18) 778.549 (1,6,17) 47.6371
(1,5,18): (1,4,18) -30.2429 (1,5,17) -778.549 (1,5,19) 771.969 (1,6,18) 36.8395
(1,5,19): (1,4,19) -23.1033 (1,5,18) -771.969 (1,5,20) 767.730 (1,6,19) 27.3580
(1,5,20): (1,4,20) -16.9009 (1,5,19) -767.730 (1,5,21) 765.238 (1,6,20) 19.4081
(1,5,21): (1,4,21) -11.7042 (1,5,20) -765.238 (1,5,22) 764.013 (1,6,21) 12.9432
(1,5,22): (1,4,22) -7.46175 (1,5,21) -764.013 (1,5,23) 763.693 (1,6,22) 7.79440
(1,5,23): (1,4,23) -4.06431 (1,5,22) -763.693 (1,5,24) 764.016 (1,6,23) 3.75374
(1,5,24): (1,4,24) -1.38342 (1,5,23) -764.016 (1,5,25) 764.795 (1,6,24) 0.617625
(1,5,25): (1,4,25) 0.706884 (1,5,24) -764.795 (1,5,26) 765.897 (1,6,25) -1.79445
(1,5,26): (1,4,26) 2.31955 (1,5,25) -765.897 (1,5,27) 767.228 (1,6,26) -3.63414
(1,5,27): (1,4,27) 3.55029 (1,5,26) -767.228 (1,5,28) 768.722 (1,6,27) -5.02455
(1,5,28): (1,4,28) 4.47688 (1,5,27) -768.722 (1,5,29) 770.329 (1,6,28) -6.06279
(1,5,29): (1,4,29) 5.16090 (1,5,28) -770.329 (1,5,30) 772.011 (1,6,29) -6.82361
(1,5,30): (1,4,30) 5.65091 (1,5,29) -772.011 (1,5,31) 773.741 (1,6,30) -7.36378
(1,5,31): (1,4,31) 5.98539 (1,5,30) -773.741 (1,5,32) 775.496 (1,6,31) -7.72679
(1,5,32): (1,4,32) 6.19426 (1,5,31) -775.496 (1,5,33) 777.261 (1,6,32) -7.94608
(1,5,33): (1,4,33) 6.29960 (1,5,32) -777.261 (1,5,34) 779.020 (1,6,33) -8.04654
(1,5,34): (1,4,34) 6.31733 (1,5,33) -779.020 (1,5,35) 780.758 (1,6,34) -8.04575
(1,5,35): (1,4,35) 6.25979 (1,5,34) -780.758 (1,5,36) 782.462 (1,6,35) -7.95634
(1,5,36): (1,4,36) 6.13732 (1,5,35) -782.462 (1,5,37) 784.125 (1,6,36) -7.78872
(1,5,37): (1,4,37) 5.95749 (1,5,36) -784.125 (1,5,38) 785.735 (1,6,37) -7.55171
(1,5,38): (1,4,38) 5.72420 (1,5,37) -785.735 (1,5,39) 787.278 (1,6,38) -7.25101
(1,5,39): (1,4,39) 5.43917 (1,5,38) -787.278 (1,5,40) 788.740 (1,6,39) -6.88890
(1,5,40): (1,4,40) 5.10512 (1,5,39) -788.740 (1,5,41) 790.109 (1,6,40) -6.46680
(1,5,41): (1,4,41) 4.72696 (1,5,40) -790.109 (1,5,42) 791.376 (1,6,41) -5.98839
(1,5,42): (1,4,42) 4.30965 (1,5,41) -791.376 (1,5,43) 792.534 (1,6,42) -5.45951
(1,5,43): (1,4,43) 3.85611 (1,5,42) -792.534 (1,5,44) 793.570 (1,6,43) -4.88547
(1,5,44): (1,4,44) 3.36833 (1,5,43) -793.570 (1,5,45) 794.475 (1,6,44) -4.26965
(1,5,45): (1,4,45) 2.85018 (1,5,44) -794.475 (1,5,46) 795.239 (1,6,45) -3.61552
(1,5,46): (1,4,46) 2.30784 (1,5,45) -795.239 (1,5,47) 795.860 (1,6,46) -2.92893
(1,5,47): (1,4,47) 1.74757 (1,5,46) -795.860 (1,5,48) 796.332 (1,6,47) -2.21757
(1,5,48): (1,4,48) 1.17384 (1,5,47) -796.332 (1,5,49) 796.650 (1,6,48) -1.48868
(1,5,49): (1,4,49) 0.589994 (1,5,48) -796.650 (1,5,50) 796.809 (1,6,49) -0.747835
(1,5,50): (1,4,50) 0.00000 (1,5,49) -796.809 (1,6,50) 0.00000
(1,6,1): (1,5,1) 0.00000 (1,6,2) 943.837 (1,7,1) 0.00000
(1,6,2): (1,5,2) -3.50722 (1,6,1) -943.837 (1,6,3) 943.731 (1,7,2) 3.62560
(1,6,3): (1,5,3) -7.29278 (1,6,2) -943.731 (1,6,4) 943.436 (1,7,3) 7.59204
(1,6,4): (1,5,4) -11.6381 (1,6,3) -943.436 (1,6,5) 942.822 (1,7,4) 12.2568
(1,6,5): (1,5,5) -16.8267 (1,6,4) -942.822 (1,6,6) 941.649 (1,7,5) 18.0073
(1,6,6): (1,5,6) -23.1295 (1,6,5) -941.649 (1,6,7) 939.525 (1,7,6) 25.2622
(1,6,7): (1,5,7) -30.7654 (1,6,6) -939.525 (1,6,8) 935.852 (1,7,7) 34.4450
(1,6,8): (1,5,8) -39.8198 (1,6,7) -935.852 (1,6,9) 929.779 (1,7,8) 45.8991
(1,6,9): (1,5,9) -50.1067 (1,6,8) -929.779 (1,6,10) 920.198 (1,7,9) 59.6942
(1,6,10): (1,5,10) -60.9746 (1,6,9) -920.198 (1,6,11) 905.913 (1,7,10) 75.2682
(1,6,11): (1,5,11) -71.1149 (1,6,10) -905.913 (1,6,12) 886.132 (1,7,11) 90.9045
(1,6,12): (1,5,12) -78.5563 (1,6,11) -886.132 (1,6,13) 861.398 (1,7,12) 103.300
(1,6,13): (1,5,13) -81.1752 (1,6,12) -861.398 (1,6,14) 834.509 (1,7,13) 108.073
(1,6,14): (1,5,14) -77.9079 (1,6,13) -834.509 (1,6,15) 809.936 (1,7,14) 102.491
(1,6,15): (1,5,15) -69.8292 (1,6,14) -809.936 (1,6,16) 790.480 (1,7,15) 89.2980
(1,6,16): (1,5,16) -59.0763 (1,6,15) -790.480 (1,6,17) 776.682 (1,7,16) 72.8896
(1,6,17): (1,5,17) -47.6371 (1,6,16) -776.682 (1,6,18) 767.751 (1,7,17) 56.5849
(1,6,18): (1,5,18) -36.8395 (1,6,17) -767.751 (1,6,19) 762.488 (1,7,18) 42.1203
(1,6,19): (1,5,19) -27.3580 (1,6,18) -762.488 (1,6,20) 759.781 (1,7,19) 30.0818
(1,6,20): (1,5,20) -19.4081 (1,6,19) -759.781 (1,6,21) 758.773 (1,7,20) 20.4315
(1,6,21): (1,5,21) -12.9432 (1,6,20) -758.773 (1,6,22) 758.864 (1,7,21) 12.8675
(1,6,22): (1,5,22) -7.79440 (1,6,21) -758.864 (1,6,23) 759.652 (1,7,22) 7.02000
(1,6,23): (1,5,23) -3.75374 (1,6,22) -759.652 (1,6,24) 760.880 (1,7,23) 2.53921
(1,6,24): (1,5,24) -0.617625 (1,6,23) -760.880 (1,6,25) 762.383 (1,7,24) -0.872678
(1,6,25): (1,5,25) 1.79445 (1,6,24) -762.383 (1,6,26) 764.057 (1,7,25) -3.45644
(1,6,26): (1,5,26) 3.63414 (1,6,25) -764.057 (1,6,27) 765.838 (1,7,26) -5.40152
(1,6,27): (1,5,27) 5.02455 (1,6,26) -765.838 (1,6,28) 767.684 (1,7,27) -6.85470
(1,6,28): (1,5,28) 6.06279 (1,6,27) -767.684 (1,6,29) 769.568 (1,7,28) -7.92827
(1,6,29): (1,5,29) 6.82361 (1,6,28) -769.568 (1,6,30) 771.471 (1,7,29) -8.70659
(1,6,30): (1,5,30) 7.36378 (1,6,29) -771.471 (1,6,31) 773.378 (1,7,30) -9.25194
(1,6,31): (1,5,31) 7.72679 (1,6,30) -773.378 (1,6,32) 775.277 (1,7,31) -9.61021
(1,6,32): (1,5,32) 7.94608 (1,6,31) -775.277 (1,6,33) 777.160 (1,7,32) -9.81565
(1,6,33): (1,5,33) 8.04654 (1,6,32) -777.160 (1,6,34) 779.020 (1,7,33) -9.89369
(1,6,34): (1,5,34) 8.04575 (1,6,33) -779.020 (1,6,35) 780.847 (1,7,34) -9.86206
(1,6,35): (1,5,35) 7.95634 (1,6,34) -780.847 (1,6,36) 782.630 (1,7,35) -9.73255
(1,6,36): (1,5,36) 7.78872 (1,6,35) -782.630 (1,6,37) 784.362 (1,7,36) -9.51399
(1,6,37): (1,5,37) 7.55171 (1,6,36) -784.362 (1,6,38) 786.035 (1,7,37) -9.21444
(1,6,38): (1,5,38) 7.25101 (1,6,37) -786.035 (1,6,39) 787.640 (1,7,38) -8.84062
(1,6,39): (1,5,39) 6.88890 (1,6,38) -787.640 (1,6,40) 789.162 (1,7,39) -8.39617
(1,6,40): (1,5,40) 6.46680 (1,6,39) -789.162 (1,6,41) 790.587 (1,7,40) -7.88223
(1,6,41): (1,5,41) 5.98839 (1,6,40) -790.587 (1,6,42) 791.905 (1,7,41) -7.30070
(1,6,42): (1,5,42) 5.45951 (1,6,41) -791.905 (1,6,43) 793.108 (1,7,42) -6.65652
(1,6,43): (1,5,43) 4.88547 (1,6,42) -793.108 (1,6,44) 794.186 (1,7,43) -5.95650
(1,6,44): (1,5,44) 4.26965 (1,6,43) -794.186 (1,6,45) 795.129 (1,7,44) -5.20647
(1,6,45): (1,5,45) 3.61552 (1,6,44) -795.129 (1,6,46) 795.926 (1,7,45) -4.41104
(1,6,46): (1,5,46) 2.92893 (1,6,45) -795.926 (1,6,47) 796.571 (1,7,46) -3.57568
(1,6,47): (1,5,47) 2.21757 (1,6,46) -796.571 (1,6,48) 797.061 (1,7,47) -2.70823
(1,6,48): (1,5,48) 1.48868 (1,6,47) -797.061 (1,6,49) 797.391 (1,7,48) -1.81777
(1,6,49): (1,5,49) 0.747835 (1,6,48) -797.391 (1,6,50) 797.557 (1,7,49) -0.912649
(1,6,50): (1,5,50) 0.00000 (1,6,49) -797.557 (1,7,50) 0.00000
(1,7,1): (1,6,1) 0.00000 (1,7,2) 947.463 (1,8,1) 0.00000
(1,7,2): (1,6,2) -3.62560 (1,7,1) -947.463 (1,7,3) 947.698 (1,8,2) 3.40329
(1,7,3): (1,6,3) -7.59204 (1,7,2) -947.698 (1,7,4) 948.101 (1,8,3) 7.19277
(1,7,4): (1,6,4) -12.2568 (1,7,3) -948.101 (1,7,5) 948.573 (1,8,4) 11.7892
(1,7,5): (1,6,5) -18.0073 (1,7,4) -948.573 (1,7,6) 948.904 (1,8,5) 17.6828
(1,7,6): (1,6,6) -25.2622 (1,7,5) -948.904 (1,7,7) 948.707 (1,8,6) 25.4669
(1,7,7): (1,6,7) -34.4450 (1,7,6) -948.707 (1,7,8) 947.306 (1,8,7) 35.8545
(1,7,8): (1,6,8) -45.8991 (1,7,7) -947.306 (1,7,9) 943.574 (1,8,8) 49.6386
(1,7,9): (1,6,9) -59.6942 (1,7,8) -943.574 (1,7,10) 935.772 (1,8,9) 67.5031
(1,7,10): (1,6,10) -75.2682 (1,7,9) -935.772 (1,7,11) 921.549 (1,8,10) 89.4996
(1,7,11): (1,6,11) -90.9045 (1,7,10) -921.549 (1,7,12) 898.528 (1,8,11) 113.935
(1,7,12): (1,6,12) -103.300 (1,7,11) -898.528 (1,7,13) 866.171 (1,8,12) 135.667
(1,7,13): (1,6,13) -108.073 (1,7,12) -866.171 (1,7,14) 828.926 (1,8,13) 145.327
(1,7,14): (1,6,14) -102.491 (1,7,13) -828.926 (1,7,15) 796.743 (1,8,14) 134.684
(1,7,15): (1,6,15) -89.2980 (1,7,14) -796.743 (1,7,16) 774.072 (1,8,15) 111.980
(1,7,16): (1,6,16) -72.8896 (1,7,15) -774.072 (1,7,17) 760.378 (1,8,16) 86.5974
(1,7,17): (1,6,17) -56.5849 (1,7,16) -760.378 (1,7,18) 753.287 (1,8,17) 63.6915
(1,7,18): (1,6,18) -42.1203 (1,7,17) -753.287 (1,7,19) 750.449 (1,8,18) 44.9743
(1,7,19): (1,6,19) -30.0818 (1,7,18) -750.449 (1,7,20) 750.130 (1,8,19) 30.4176
(1,7,20): (1,6,20) -20.4315 (1,7,19) -750.130 (1,7,21) 751.209 (1,8,20) 19.3689
(1,7,21): (1,6,21) -12.8675 (1,7,20) -751.209 (1,7,22) 753.016 (1,8,21) 11.0761
(1,7,22): (1,6,22) -7.02000 (1,7,21) -753.016 (1,7,23) 755.171 (1,8,22) 4.87983
(1,7,23): (1,6,23) -2.53921 (1,7,22) -755.171 (1,7,24) 757.468 (1,8,23) 0.256756
(1,7,24): (1,6,24) 0.872678 (1,7,23) -757.468 (1,7,25) 759.799 (1,8,24) -3.19036
(1,7,25): (1,6,25) 3.45644 (1,7,24) -759.799 (1,7,26) 762.112 (1,8,25) -5.75728
(1,7,26): (1,6,26) 5.40152 (1,7,25) -762.112 (1,7,27) 764.384 (1,8,26) -7.66261
(1,7,27): (1,6,27) 6.85470 (1,7,26) -764.384 (1,7,28) 766.610 (1,8,27) -9.06789
(1,7,28): (1,6,28) 7.92827 (1,7,27) -766.610 (1,7,29) 768.790 (1,8,28) -10.0926
(1,7,29): (1,6,29) 8.70659 (1,7,28) -768.790 (1,7,30) 770.926 (1,8,29) -10.8246
(1,7,30): (1,6,30) 9.25194 (1,7,29) -770.926 (1,7,31) 773.019 (1,8,30) -11.3272
(1,7,31): (1,6,31) 9.61021 (1,7,30) -773.019 (1,7,32) 775.071 (1,8,31) -11.6454
(1,7,32): (1,6,32) 9.81565 (1,7,31) -775.071 (1,7,33) 777.082 (1,8,32) -11.8117
(1,7,33): (1,6,33) 9.89369 (1,7,32) -777.082 (1,7,34) 779.052 (1,8,33) -11.8491
(1,7,34): (1,6,34) 9.86206 (1,7,33) -779.052 (1,7,35) 780.976 (1,8,34) -11.7740
(1,7,35): (1,6,35) 9.73255 (1,7,34) -780.976 (1,7,36) 782.849 (1,8,35) -11.5963
(1,7,36): (1,6,36) 9.51399 (1,7,35) -782.849 (1,7,37) 784.661 (1,8,36) -11.3221
(1,7,37): (1,6,37) 9.21444 (1,7,36) -784.661 (1,7,38) 786.409 (1,8,37) -10.9566
(1,7,38): (1,6,38) 8.84062 (1,7,37) -786.409 (1,7,39) 788.085 (1,8,38) -10.5055
(1,7,39): (1,6,39) 8.39617 (1,7,38) -788.085 (1,7,40) 789.676 (1,8,39) -9.97354
(1,7,40): (1,6,40) 7.88223 (1,7,39) -789.676 (1,7,41) 791.169 (1,8,40) -9.36276
(1,7,41): (1,6,41) 7.30070 (1,7,40) -791.169 (1,7,42) 792.549 (1,8,41) -8.67419
(1,7,42): (1,6,42) 6.65652 (1,7,41) -792.549 (1,7,43) 793.808 (1,8,42) -7.91097
(1,7,43): (1,6,43) 5.95650 (1,7,42) -793.808 (1,7,44) 794.936 (1,8,43) -7.07965
(1,7,44): (1,6,44) 5.20647 (1,7,43) -794.936 (1,7,45) 795.924 (1,8,44) -6.18817
(1,7,45): (1,6,45) 4.41104 (1,7,44) -795.924 (1,7,46) 796.761 (1,8,45) -5.24357
(1,7,46): (1,6,46) 3.57568 (1,7,45) -796.761 (1,7,47) 797.438 (1,8,46) -4.25239
(1,7,47): (1,6,47) 2.70823 (1,7,46) -797.438 (1,7,48) 797.951 (1,8,47) -3.22246
(1,7,48): (1,6,48) 1.81777 (1,7,47) -797.951 (1,7,49) 798.296 (1,8,48) -2.16355
(1,7,49): (1,6,49) 0.912649 (1,7,48) -798.296 (1,7,50) 798.470 (1,8,49) -1.08614
(1,7,50): (1,6,50) 0.00000 (1,7,49) -798.470 (1,8,50) 0.00000
(1,8,1): (1,7,1) 0.00000 (1,8,2) 950.866 (1,9,1) 0.00000
(1,8,2): (1,7,2) -3.40329 (1,8,1) -950.866 (1,8,3) 951.487 (1,9,2) 2.79492
(1,8,3): (1,7,3) -7.19277 (1,8,2) -951.487 (1,8,4) 952.697 (1,9,3) 5.98660
(1,8,4): (1,7,4) -11.7892 (1,8,3) -952.697 (1,8,5) 954.467 (1,9,4) 10.0237
(1,8,5): (1,7,5) -17.6828 (1,8,4) -954.467 (1,8,6) 956.688 (1,9,5) 15.4669
(1,8,6): (1,7,6) -25.4669 (1,8,5) -956.688 (1,8,7) 959.095 (1,9,6) 23.0678
(1,8,7): (1,7,7) -35.8545 (1,8,6) -959.095 (1,8,8) 961.091 (1,9,7) 33.8679
(1,8,8): (1,7,8) -49.6386 (1,8,7) -961.091 (1,8,9) 961.439 (1,9,8) 49.2989
(1,8,9): (1,7,9) -67.5031 (1,8,8) -961.439 (1,8,10) 957.769 (1,9,9) 71.1807
(1,8,10): (1,7,10) -89.4996 (1,8,9) -957.769 (1,8,11) 945.984 (1,9,10) 101.292
(1,8,11): (1,7,11) -113.935 (1,8,10) -945.984 (1,8,12) 920.260 (1,9,11) 139.669
(1,8,12): (1,7,12) -135.667 (1,8,11) -920.260 (1,8,13) 875.831 (1,9,12) 180.107
(1,8,13): (1,7,13) -145.327 (1,8,12) -875.831 (1,8,14) 818.284 (1,9,13) 202.883
(1,8,14): (1,7,14) -134.684 (1,8,13) -818.284 (1,8,15) 774.039 (1,9,14) 178.938
(1,8,15): (1,7,15) -111.980 (1,8,14) -774.039 (1,8,16) 748.688 (1,9,15) 137.341
(1,8,16): (1,7,16) -86.5974 (1,8,15) -748.688 (1,8,17) 737.472 (1,9,16) 97.8261
(1,8,17): (1,7,17) -63.6915 (1,8,16) -737.472 (1,8,18) 734.569 (1,9,17) 66.6078
(1,8,18): (1,7,18) -44.9743 (1,8,17) -734.569 (1,8,19) 735.892 (1,9,18) 43.6668
(1,8,19): (1,7,19) -30.4176 (1,8,18) -735.892 (1,8,20) 739.081 (1,9,19) 27.2450
(1,8,20): (1,7,20) -19.3689 (1,8,19) -739.081 (1,8,21) 742.916 (1,9,20) 15.5504
(1,8,21): (1,7,21) -11.0761 (1,8,20) -742.916 (1,8,22) 746.820 (1,9,21) 7.18863
(1,8,22): (1,7,22) -4.87983 (1,8,21) -746.820 (1,8,23) 750.548 (1,9,22) 1.16690
(1,8,23): (1,7,23) -0.256756 (1,8,22) -750.548 (1,8,24) 754.021 (1,9,23) -3.20103
(1,8,24): (1,7,24) 3.19036 (1,8,23) -754.021 (1,8,25) 757.232 (1,9,24) -6.38736
(1,8,25): (1,7,25) 5.75728 (1,8,24) -757.232 (1,8,26) 760.206 (1,9,25) -8.71886
(1,8,26): (1,7,26) 7.66261 (1,8,25) -760.206 (1,8,27) 762.979 (1,9,26) -10.4238
(1,8,27): (1,7,27) 9.06789 (1,8,26) -762.979 (1,8,28) 765.586 (1,9,27) -11.6634
(1,8,28): (1,7,28) 10.0926 (1,8,27) -765.586 (1,8,29) 768.058 (1,9,28) -12.5530
(1,8,29): (1,7,29) 10.8246 (1,8,28) -768.058 (1,8,30) 770.423 (1,9,29) -13.1751
(1,8,30): (1,7,30) 11.3272 (1,8,29) -770.423 (1,8,31) 772.701 (1,9,30) -13.5884
(1,8,31): (1,7,31) 11.6454 (1,8,30) -772.701 (1,8,32) 774.905 (1,9,31) -13.8332
(1,8,32): (1,7,32) 11.8117 (1,8,31) -774.905 (1,8,33) 777.045 (1,9,32) -13.9365
(1,8,33): (1,7,33) 11.8491 (1,8,32) -777.045 (1,8,34) 779.127 (1,9,33) -13.9169
(1,8,34): (1,7,34) 11.7740 (1,8,33) -779.127 (1,8,35) 781.154 (1,9,34) -13.7869
(1,8,35): (1,7,35) 11.5963 (1,8,34) -781.154 (1,8,36) 783.123 (1,9,35) -13.5536
(1,8,36): (1,7,36) 11.3221 (1,8,35) -783.123 (1,8,37) 785.027 (1,9,36) -13.2197
(1,8,37): (1,7,37) 10.9566 (1,8,36) -785.027 (1,8,38) 786.860 (1,9,37) -12.7866
(1,8,38): (1,7,38) 10.5055 (1,8,37) -786.860 (1,8,39) 788.617 (1,9,38) -12.2566
(1,8,39): (1,7,39) 9.97354 (1,8,38) -788.617 (1,8,40) 790.287 (1,9,39) -11.6336
(1,8,40): (1,7,40) 9.36276 (1,8,39) -790.287 (1,8,41) 791.857 (1,9,40) -10.9208
(1,8,41): (1,7,41) 8.67419 (1,8,40) -791.857 (1,8,42) 793.312 (1,9,41) -10.1199
(1,8,42): (1,7,42) 7.91097 (1,8,41) -793.312 (1,8,43) 794.639 (1,9,42) -9.23297
(1,8,43): (1,7,43) 7.07965 (1,8,42) -794.639 (1,8,44) 795.828 (1,9,43) -8.26523
(1,8,44): (1,7,44) 6.18817 (1,8,43) -795.828 (1,8,45) 796.869 (1,9,44) -7.22517
(1,8,45): (1,7,45) 5.24357 (1,8,44) -796.869 (1,8,46) 797.752 (1,9,45) -6.12229
(1,8,46): (1,7,46) 4.25239 (1,8,45) -797.752 (1,8,47) 798.468 (1,9,46) -4.96558
(1,8,47): (1,7,47) 3.22246 (1,8,46) -798.468 (1,8,48) 799.010 (1,9,47) -3.76411
(1,8,48): (1,7,48) 2.16355 (1,8,47) -799.010 (1,8,49) 799.373 (1,9,48) -2.52818
(1,8,49): (1,7,49) 1.08614 (1,8,48) -799.373 (1,8,50) 799.556 (1,9,49) -1.26948
(1,8,50): (1,7,50) 0.00000 (1,8,49) -799.556 (1,9,50) 0.00000
(1,9,1): (1,8,1) 0.00000 (1,9,2) 953.661 (1,10,1) 0.00000
(1,9,2): (1,8,2) -2.79492 (1,9,1) -953.661 (1,9,3) 954.679 (1,10,2) 1.78983
(1,9,3): (1,8,3) -5.98660 (1,9,2) -954.679 (1,9,4) 956.735 (1,10,3) 3.93519
(1,9,4): (1,8,4) -10.0237 (1,9,3) -956.735 (1,9,5) 959.910 (1,10,4) 6.85179
(1,9,5): (1,8,5) -15.4669 (1,9,4) -959.910 (1,9,6) 964.289 (1,10,5) 11.0926
(1,9,6): (1,8,6) -23.0678 (1,9,5) -964.289 (1,9,7) 969.895 (1,10,6) 17.4685
(1,9,7): (1,8,7) -33.8679 (1,9,6) -969.895 (1,9,8) 976.522 (1,10,7) 27.2505
(1,9,8): (1,8,8) -49.2989 (1,9,7) -976.522 (1,9,9) 983.321 (1,10,8) 42.5090
(1,9,9): (1,8,9) -71.1807 (1,9,8) -983.321 (1,9,10) 987.880 (1,10,9) 66.6293
(1,9,10): (1,8,10) -101.292 (1,9,9) -987.880 (1,9,11) 984.360 (1,10,10) 104.821
(1,9,11): (1,8,11) -139.669 (1,9,10) -984.360 (1,9,12) 960.698 (1,10,11) 163.341
(1,9,12): (1,8,12) -180.107 (1,9,11) -960.698 (1,9,13) 898.607 (1,10,12) 242.208
(1,9,13): (1,8,13) -202.883 (1,9,12) -898.607 (1,9,14) 794.339 (1,10,13) 307.162
(1,9,14): (1,8,14) -178.938 (1,9,13) -794.339 (1,9,15) 732.442 (1,10,14) 240.844
(1,9,15): (1,8,15) -137.341 (1,9,14) -732.442 (1,9,16) 709.174 (1,10,15) 160.619
(1,9,16): (1,8,16) -97.8261 (1,9,15) -709.174 (1,9,17) 706.253 (1,10,16) 100.757
(1,9,17): (1,8,17) -66.6078 (1,9,16) -706.253 (1,9,18) 711.628 (1,10,17) 61.2451
(1,9,18): (1,8,18) -43.6668 (1,9,17) -711.628 (1,9,19) 719.471 (1,10,18) 35.8388
(1,9,19): (1,8,19) -27.2450 (1,9,18) -719.471 (1,9,20) 727.387 (1,10,19) 19.3443
(1,9,20): (1,8,20) -15.5504 (1,9,19) -727.387 (1,9,21) 734.555 (1,10,20) 8.39859
(1,9,21): (1,8,21) -7.18863 (1,9,20) -734.555 (1,9,22) 740.798 (1,10,21) 0.961023
(1,9,22): (1,8,22) -1.16690 (1,9,21) -740.798 (1,9,23) 746.180 (1,10,22) -4.19965
(1,9,23): (1,8,23) 3.20103 (1,9,22) -746.180 (1,9,24) 750.835 (1,10,23) -7.84021
(1,9,24): (1,8,24) 6.38736 (1,9,23) -750.835 (1,9,25) 754.900 (1,10,24) -10.4388
(1,9,25): (1,8,25) 8.71886 (1,9,24) -754.900 (1,9,26) 758.502 (1,10,25) -12.3062
(1,9,26): (1,8,26) 10.4238 (1,9,25) -758.502 (1,9,27) 761.740 (1,10,26) -13.6495
(1,9,27): (1,8,27) 11.6634 (1,9,26) -761.740 (1,9,28) 764.696 (1,10,27) -14.6093
(1,9,28): (1,8,28) 12.5530 (1,9,27) -764.696 (1,9,29) 767.436 (1,10,28) -15.2827
(1,9,29): (1,8,29) 13.1751 (1,9,28) -767.436 (1,9,30) 770.010 (1,10,29) -15.7375
(1,9,30): (1,8,30) 13.5884 (1,9,29) -770.010 (1,9,31) 772.456 (1,10,30) -16.0208
(1,9,31): (1,8,31) 13.8332 (1,9,30) -772.456 (1,9,32) 774.802 (1,10,31) -16.1636
(1,9,32): (1,8,32) 13.9365 (1,9,31) -774.802 (1,9,33) 777.064 (1,10,32) -16.1850
(1,9,33): (1,8,33) 13.9169 (1,9,32) -777.064 (1,9,34) 779.257 (1,10,33) -16.0962
(1,9,34): (1,8,34) 13.7869 (1,9,33) -779.257 (1,9,35) 781.387 (1,10,34) -15.9034
(1,9,35): (1,8,35) 13.5536 (1,9,34) -781.387 (1,9,36) 783.457 (1,10,35) -15.6093
(1,9,36): (1,8,36) 13.2197 (1,9,35) -783.457 (1,9,37) 785.460 (1,10,36) -15.2131
(1,9,37): (1,8,37) 12.7866 (1,9,36) -785.460 (1,9,38) 787.390 (1,10,37) -14.7119
(1,9,38): (1,8,38) 12.2566 (1,9,37) -787.390 (1,9,39) 789.240 (1,10,38) -14.1034
(1,9,39): (1,8,39) 11.6336 (1,9,38) -789.240 (1,9,40) 791.000 (1,10,39) -13.3885
(1,9,40): (1,8,40) 10.9208 (1,9,39) -791.000 (1,9,41) 792.658 (1,10,40) -12.5699
(1,9,41): (1,8,41) 10.1199 (1,9,40) -792.658 (1,9,42) 794.199 (1,10,41) -11.6506
(1,9,42): (1,8,42) 9.23297 (1,9,41) -794.199 (1,9,43) 795.607 (1,10,42) -10.6335
(1,9,43): (1,8,43) 8.26523 (1,9,42) -795.607 (1,9,44) 796.868 (1,10,43) -9.52307
(1,9,44): (1,8,44) 7.22517 (1,9,43) -796.868 (1,9,45) 797.972 (1,10,44) -8.32723
(1,9,45): (1,8,45) 6.12229 (1,9,44) -797.972 (1,9,46) 798.909 (1,10,45) -7.05681
(1,9,46): (1,8,46) 4.96558 (1,9,45) -798.909 (1,9,47) 799.670 (1,10,46) -5.72352
(1,9,47): (1,8,47) 3.76411 (1,9,46) -799.670 (1,9,48) 800.246 (1,10,47) -4.33890
(1,9,48): (1,8,48) 2.52818 (1,9,47) -800.246 (1,9,49) 800.632 (1,10,48) -2.91479
(1,9,49): (1,8,49) 1.26948 (1,9,48) -800.632 (1,9,50) 800.825 (1,10,49) -1.46397
(1,9,50): (1,8,50) 0.00000 (1,9,49) -800.825 (1,10,50) 0.00000
(1,10,1): (1,9,1) 0.00000 (1,10,2) 955.451 (1,11,1) 0.00000
(1,10,2): (1,9,2) -1.78983 (1,10,1) -955.451 (1,10,3) 956.824 (1,11,2) 0.429172
(1,10,3): (1,9,3) -3.93519 (1,10,2) -956.824 (1,10,4) 959.651 (1,11,3) 1.11277
(1,10,4): (1,9,4) -6.85179 (1,10,3) -959.651 (1,10,5) 964.151 (1,11,4) 2.35566
(1,10,5): (1,9,5) -11.0926 (1,10,4) -964.151 (1,10,6) 970.665 (1,11,5) 4.58254
(1,10,6): (1,9,6) -17.4685 (1,10,5) -970.665 (1,10,7) 979.677 (1,11,6) 8.46209
(1,10,7): (1,9,7) -27.2505 (1,10,6) -979.677 (1,10,8) 991.780 (1,11,7) 15.1560
(1,10,8): (1,9,8) -42.5090 (1,10,7) -991.780 (1,10,9) 1007.44 (1,11,8) 26.8574
(1,10,9): (1,9,9) -66.6293 (1,10,8) -1007.44 (1,10,10) 1026.07 (1,11,9) 48.0070
(1,10,10): (1,9,10) -104.821 (1,10,9) -1026.07 (1,10,11) 1042.88 (1,11,10) 88.0221
(1,10,11): (1,9,11) -163.341 (1,10,10) -1042.88 (1,10,12) 1039.57 (1,11,11) 166.664
(1,10,12): (1,9,12) -242.208 (1,10,11) -1039.57 (1,10,13) 963.560 (1,11,12) 318.224
(1,10,13): (1,9,13) -307.162 (1,10,12) -963.560 (1,10,14) 728.021 (1,11,13) 542.712
(1,10,14): (1,9,14) -240.844 (1,10,13) -728.021 (1,10,15) 652.217 (1,11,14) 316.658
(1,10,15): (1,9,15) -160.619 (1,10,14) -652.217 (1,10,16) 649.311 (1,11,15) 163.535
(1,10,16): (1,9,16) -100.757 (1,10,15) -649.311 (1,10,17) 666.742 (1,11,16) 83.3362
(1,10,17): (1,9,17) -61.2451 (1,10,16) -666.742 (1,10,18) 686.222 (1,11,17) 41.7755
(1,10,18): (1,9,18) -35.8388 (1,10,17) -686.222 (1,10,19) 702.976 (1,11,18) 19.0972
(1,10,19): (1,9,19) -19.3443 (1,10,18) -702.976 (1,10,20) 716.441 (1,11,19) 5.89334
(1,10,20): (1,9,20) -8.39859 (1,10,19) -716.441 (1,10,21) 727.117 (1,11,20) -2.26237
(1,10,21): (1,9,21) -0.961023 (1,10,20) -727.117 (1,10,22) 735.638 (1,11,21) -7.54392
(1,10,22): (1,9,22) 4.19965 (1,10,21) -735.638 (1,10,23) 742.540 (1,11,22) -11.0864
(1,10,23): (1,9,23) 7.84021 (1,10,22) -742.540 (1,10,24) 748.236 (1,11,23) -13.5214
(1,10,24): (1,9,24) 10.4388 (1,10,23) -748.236 (1,10,25) 753.033 (1,11,24) -15.2213
(1,10,25): (1,9,25) 12.3062 (1,10,24) -753.033 (1,10,26) 757.158 (1,11,25) -16.4173
(1,10,26): (1,9,26) 13.6495 (1,10,25) -757.158 (1,10,27) 760.780 (1,11,26) -17.2579
(1,10,27): (1,9,27) 14.6093 (1,10,26) -760.780 (1,10,28) 764.023 (1,11,27) -17.8408
(1,10,28): (1,9,28) 15.2827 (1,10,27) -764.023 (1,10,29) 766.981 (1,11,28) -18.2315
(1,10,29): (1,9,29) 15.7375 (1,10,28) -766.981 (1,10,30) 769.727 (1,11,29) -18.4736
(1,10,30): (1,9,30) 16.0208 (1,10,29) -769.727 (1,10,31) 772.313 (1,11,30) -18.5963
(1,10,31): (1,9,31) 16.1636 (1,10,30) -772.313 (1,10,32) 774.780 (1,11,31) -18.6173
(1,10,32): (1,9,32) 16.1850 (1,10,31) -774.780 (1,10,33) 777.153 (1,11,32) -18.5449
(1,10,33): (1,9,33) 16.0962 (1,10,32) -777.153 (1,10,34) 779.450 (1,11,33) -18.3808
(1,10,34): (1,9,34) 15.9034 (1,10,33) -779.450 (1,10,35) 781.682 (1,11,34) -18.1230
(1,10,35): (1,9,35) 15.6093 (1,10,34) -781.682 (1,10,36) 783.853 (1,11,35) -17.7677
(1,10,36): (1,9,36) 15.2131 (1,10,35) -783.853 (1,10,37) 785.961 (1,11,36) -17.3093
(1,10,37): (1,9,37) 14.7119 (1,10,36) -785.961 (1,10,38) 787.999 (1,11,37) -16.7410
(1,10,38): (1,9,38) 14.1034 (1,10,37) -787.999 (1,10,39) 789.955 (1,11,38) -16.0558
(1,10,39): (1,9,39) 13.3885 (1,10,38) -789.955 (1,10,40) 791.818 (1,11,39) -15.2501
(1,10,40): (1,9,40) 12.5699 (1,10,39) -791.818 (1,10,41) 793.577 (1,11,40) -14.3241
(1,10,41): (1,9,41) 11.6506 (1,10,40) -793.577 (1,10,42) 795.216 (1,11,41) -13.2812
(1,10,42): (1,9,42) 10.6335 (1,10,41) -795.216 (1,10,43) 796.717 (1,11,42) -12.1262
(1,10,43): (1,9,43) 9.52307 (1,10,42) -796.717 (1,10,44) 798.064 (1,11,43) -10.8643
(1,10,44): (1,9,44) 8.32723 (1,10,43) -798.064 (1,10,45) 799.242 (1,11,44) -9.50381
(1,10,45): (1,9,45) 7.05681 (1,10,44) -799.242 (1,10,46) 800.242 (1,11,45) -8.05594
(1,10,46): (1,9,46) 5.72352 (1,10,45) -800.242 (1,10,47) 801.055 (1,11,46) -6.53438
(1,10,47): (1,9,47) 4.33890 (1,10,46) -801.055 (1,10,48) 801.670 (1,11,47) -4.95348
(1,10,48): (1,9,48) 2.91479 (1,10,47) -801.670 (1,10,49) 802.083 (1,11,48) -3.32764
(1,10,49): (1,9,49) 1.46397 (1,10,48) -802.083 (1,10,50) 802.289 (1,11,49) -1.67145
(1,10,50): (1,9,50) 0.00000 (1,10,49) -802.289 (1,11,50) 0.00000
(1,11,1): (1,10,1) 0.00000 (1,11,2) 955.880 (1,12,1) 0.00000
(1,11,2): (1,10,2) -0.429172 (1,11,1) -955.880 (1,11,3) 957.508 (1,12,2) -1.18603
(1,11,3): (1,10,3) -1.11277 (1,11,2) -957.508 (1,11,4) 960.894 (1,12,3) -2.26872
(1,11,4): (1,10,4) -2.35566 (1,11,3) -960.894 (1,11,5) 966.377 (1,12,4) -3.12432
(1,11,5): (1,10,5) -4.58254 (1,11,4) -966.377 (1,11,6) 974.544 (1,12,5) -3.58050
(1,11,6): (1,10,6) -8.46209 (1,11,5) -974.544 (1,11,7) 986.371 (1,12,6) -3.35945
(1,11,7): (1,10,7) -15.1560 (1,11,6) -986.371 (1,11,8) 1003.48 (1,12,7) -1.94693
(1,11,8): (1,10,8) -26.8574 (1,11,7) -1003.48 (1,11,9) 1028.59 (1,12,8) 1.75754
(1,11,9): (1,10,9) -48.0070 (1,11,8) -1028.59 (1,11,10) 1066.09 (1,12,9) 10.5193
(1,11,10): (1,10,10) -88.0221 (1,11,9) -1066.09 (1,11,11) 1121.52 (1,12,10) 32.5961
(1,11,11): (1,10,11) -166.664 (1,11,10) -1121.52 (1,11,12) 1191.13 (1,12,11) 97.0700
(1,11,12): (1,10,12) -318.224 (1,11,11) -1191.13 (1,11,13) 1188.05 (1,12,12) 321.313
(1,11,13): (1,10,13) -542.712 (1,11,12) -1188.05 (1,11,14) 501.967 (1,12,13) 1228.80
(1,11,14): (1,10,14) -316.658 (1,11,13) -501.967 (1,11,15) 499.094 (1,12,14) 319.542
(1,11,15): (1,10,15) -163.535 (1,11,14) -499.094 (1,11,16) 569.113 (1,12,15) 93.5263
(1,11,16): (1,10,16) -83.3362 (1,11,15) -569.113 (1,11,17) 625.181 (1,12,16) 27.2777
(1,11,17): (1,10,17) -41.7755 (1,11,16) -625.181 (1,11,18) 663.544 (1,12,17) 3.42274
(1,11,18): (1,10,18) -19.0972 (1,11,17) -663.544 (1,11,19) 689.772 (1,12,18) -7.12045
(1,11,19): (1,10,19) -5.89334 (1,11,18) -689.772 (1,11,20) 708.285 (1,12,19) -12.6074
(1,11,20): (1,10,20) 2.26237 (1,11,19) -708.285 (1,11,21) 721.836 (1,12,20) -15.7990
(1,11,21): (1,10,21) 7.54392 (1,11,20) -721.836 (1,11,22) 732.095 (1,12,21) -17.7890
(1,11,22): (1,10,22) 11.0864 (1,11,21) -732.095 (1,11,23) 740.105 (1,12,22) -19.0812
(1,11,23): (1,10,23) 13.5214 (1,11,22) -740.105 (1,11,24) 746.536 (1,12,23) -19.9377
(1,11,24): (1,10,24) 15.2213 (1,11,23) -746.536 (1,11,25) 751.837 (1,12,24) -20.5081
(1,11,25): (1,10,25) 16.4173 (1,11,24) -751.837 (1,11,26) 756.318 (1,12,25) -20.8839
(1,11,26): (1,10,26) 17.2579 (1,11,25) -756.318 (1,11,27) 760.197 (1,12,26) -21.1233
(1,11,27): (1,10,27) 17.8408 (1,11,26) -760.197 (1,11,28) 763.632 (1,12,27) -21.2638
(1,11,28): (1,10,28) 18.2315 (1,11,27) -763.632 (1,11,29) 766.739 (1,12,28) -21.3283
(1,11,29): (1,10,29) 18.4736 (1,11,28) -766.739 (1,11,30) 769.604 (1,12,29) -21.3303
(1,11,30): (1,10,30) 18.5963 (1,11,29) -769.604 (1,11,31) 772.293 (1,12,30) -21.2760
(1,11,31): (1,10,31) 18.6173 (1,11,30) -772.293 (1,11,32) 774.853 (1,12,31) -21.1664
(1,11,32): (1,10,32) 18.5449 (1,11,31) -774.853 (1,11,33) 777.317 (1,12,32) -20.9975
(1,11,33): (1,10,33) 18.3808 (1,11,32) -777.317 (1,11,34) 779.708 (1,12,33) -20.7600
(1,11,34): (1,10,34) 18.1230 (1,11,33) -779.708 (1,11,35) 782.037 (1,12,34) -20.4421
(1,11,35): (1,10,35) 17.7677 (1,11,34) -782.037 (1,11,36) 784.311 (1,12,35) -20.0314
(1,11,36): (1,10,36) 17.3093 (1,11,35) -784.311 (1,11,37) 786.530 (1,12,36) -19.5160
(1,11,37): (1,10,37) 16.7410 (1,11,36) -786.530 (1,11,38) 788.684 (1,12,37) -18.8844
(1,11,38): (1,10,38) 16.0558 (1,11,37) -788.684 (1,11,39) 790.760 (1,12,38) -18.1257
(1,11,39): (1,10,39) 15.2501 (1,11,38) -790.760 (1,11,40) 792.744 (1,12,39) -17.2314
(1,11,40): (1,10,40) 14.3241 (1,11,39) -792.744 (1,11,41) 794.620 (1,12,40) -16.1982
(1,11,41): (1,10,41) 13.2812 (1,11,40) -794.620 (1,11,42) 796.371 (1,12,41) -15.0281
(1,11,42): (1,10,42) 12.1262 (1,11,41) -796.371 (1,11,43) 797.979 (1,12,42) -13.7271
(1,11,43): (1,10,43) 10.8643 (1,11,42) -797.979 (1,11,44) 799.424 (1,12,43) -12.3031
(1,11,44): (1,10,44) 9.50381 (1,11,43) -799.424 (1,11,45) 800.690 (1,12,44) -10.7660
(1,11,45): (1,10,45) 8.05594 (1,11,44) -800.690 (1,11,46) 801.764 (1,12,45) -9.12850
(1,11,46): (1,10,46) 6.53438 (1,11,45) -801.764 (1,11,47) 802.635 (1,12,46) -7.40559
(1,11,47): (1,10,47) 4.95348 (1,11,46) -802.635 (1,11,48) 803.296 (1,12,47) -5.61411
(1,11,48): (1,10,48) 3.32764 (1,11,47) -803.296 (1,11,49) 803.739 (1,12,48) -3.77126
(1,11,49): (1,10,49) 1.67145 (1,11,48) -803.739 (1,11,50) 803.961 (1,12,49) -1.89419
(1,11,50): (1,10,50) 0.00000 (1,11,49) -803.961 (1,12,50) 0.00000
(1,12,1): (1,11,1) 0.00000 (1,12,2) 954.694 (1,13,1) 0.00000
(1,12,2): (1,11,2) 1.18603 (1,12,1) -954.694 (1,12,3) 956.425 (1,13,2) -2.90481
(1,12,3): (1,11,3) 2.26872 (1,12,2) -956.425 (1,12,4) 960.038 (1,13,3) -5.87708
(1,12,4): (1,11,4) 3.12432 (1,12,3) -960.038 (1,12,5) 965.921 (1,13,4) -9.00352
(1,12,5): (1,11,5) 3.58050 (1,12,4) -965.921 (1,12,6) 974.765 (1,13,5) -12.4209
(1,12,6): (1,11,6) 3.35945 (1,12,5) -974.765 (1,12,7) 987.784 (1,13,6) -16.3731
(1,12,7): (1,11,7) 1.94693 (1,12,6) -987.784 (1,12,8) 1007.19 (1,13,7) -21.3426
(1,12,8): (1,11,8) -1.75754 (1,12,7) -1007.19 (1,12,9) 1037.35 (1,13,8) -28.4001
(1,12,9): (1,11,9) -10.5193 (1,12,8) -1037.35 (1,12,10) 1088.16 (1,13,9) -40.2835
(1,12,10): (1,11,10) -32.5961 (1,12,9) -1088.16 (1,12,11) 1186.00 (1,13,10) -65.2268
(1,12,11): (1,11,11) -97.0700 (1,12,10) -1186.00 (1,12,12) 1415.37 (1,13,11) -132.294
(1,12,12): (1,11,12) -321.313 (1,12,11) -1415.37 (1,12,13) 2095.54 (1,13,12) -358.845
(1,12,13): (1,11,13) -1228.80 (1,12,12) -2095.54 (1,12,14) -407.294 (1,13,13) -1268.35
(1,12,14): (1,11,14) -319.542 (1,12,13) 407.294 (1,12,15) 273.079 (1,13,14) -360.820
(1,12,15): (1,11,15) -93.5263 (1,12,14) -273.079 (1,12,16) 502.864 (1,13,15) -136.248
(1,12,16): (1,11,16) -27.2777 (1,12,15) -502.864 (1,12,17) 601.326 (1,13,16) -71.1740
(1,12,17): (1,11,17) -3.42274 (1,12,16) -601.326 (1,12,18) 653.001 (1,13,17) -48.2421
(1,12,18): (1,11,18) 7.12045 (1,12,17) -653.001 (1,12,19) 684.285 (1,13,18) -38.3952
(1,12,19): (1,11,19) 12.6074 (1,12,18) -684.285 (1,12,20) 705.094 (1,13,19) -33.4048
(1,12,20): (1,11,20) 15.7990 (1,12,19) -705.094 (1,12,21) 719.846 (1,13,20) -30.5390
(1,12,21): (1,11,21) 17.7890 (1,12,20) -719.846 (1,12,22) 730.803 (1,13,21) -28.7335
(1,12,22): (1,11,22) 19.0812 (1,12,21) -730.803 (1,12,23) 739.248 (1,13,22) -27.5129
(1,12,23): (1,11,23) 19.9377 (1,12,22) -739.248 (1,12,24) 745.966 (1,13,23) -26.6408
(1,12,24): (1,11,24) 20.5081 (1,12,23) -745.966 (1,12,25) 751.461 (1,13,24) -25.9899
(1,12,25): (1,11,25) 20.8839 (1,12,24) -751.461 (1,12,26) 756.078 (1,13,25) -25.4872
(1,12,26): (1,11,26) 21.1233 (1,12,25) -756.078 (1,12,27) 760.056 (1,13,26) -25.0878
(1,12,27): (1,11,27) 21.2638 (1,12,26) -760.056 (1,12,28) 763.567 (1,13,27) -24.7619
(1,12,28): (1,11,28) 21.3283 (1,12,27) -763.567 (1,12,29) 766.737 (1,13,28) -24.4868
(1,12,29): (1,11,29) 21.3303 (1,12,28) -766.737 (1,12,30) 769.658 (1,13,29) -24.2430
(1,12,30): (1,11,30) 21.2760 (1,12,29) -769.658 (1,12,31) 772.402 (1,13,30) -24.0125
(1,12,31): (1,11,31) 21.1664 (1,12,30) -772.402 (1,12,32) 775.022 (1,13,31) -23.7776
(1,12,32): (1,11,32) 20.9975 (1,12,31) -775.022 (1,12,33) 777.555 (1,13,32) -23.5202
(1,12,33): (1,11,33) 20.7600 (1,12,32) -777.555 (1,12,34) 780.026 (1,13,33) -23.2200
(1,12,34): (1,11,34) 20.4421 (1,12,33) -780.026 (1,12,35) 782.448 (1,13,34) -22.8548
(1,12,35): (1,11,35) 20.0314 (1,12,34) -782.448 (1,12,36) 784.827 (1,13,35) -22.4020
(1,12,36): (1,11,36) 19.5160 (1,12,35) -784.827 (1,12,37) 787.161 (1,13,36) -21.8415
(1,12,37): (1,11,37) 18.8844 (1,12,36) -787.161 (1,12,38) 789.442 (1,13,37) -21.1554
(1,12,38): (1,11,38) 18.1257 (1,12,37) -789.442 (1,12,39) 791.655 (1,13,38) -20.3287
(1,12,39): (1,11,39) 17.2314 (1,12,38) -791.655 (1,12,40) 793.777 (1,13,39) -19.3490
(1,12,40): (1,11,40) 16.1982 (1,12,39) -793.777 (1,12,41) 795.790 (1,13,40) -18.2092
(1,12,41): (1,11,41) 15.0281 (1,12,40) -795.790 (1,12,42) 797.672 (1,13,41) -16.9090
(1,12,42): (1,11,42) 13.7271 (1,12,41) -797.672 (1,12,43) 799.403 (1,13,42) -15.4545
(1,12,43): (1,11,43) 12.3031 (1,12,42) -799.403 (1,12,44) 800.961 (1,13,43) -13.8563
(1,12,44): (1,11,44) 10.7660 (1,12,43) -800.961 (1,12,45) 802.328 (1,13,44) -12.1281
(1,12,45): (1,11,45) 9.12850 (1,12,44) -802.328 (1,12,46) 803.487 (1,13,45) -10.2851
(1,12,46): (1,11,46) 7.40559 (1,12,45) -803.487 (1,12,47) 804.427 (1,13,46) -8.34486
(1,12,47): (1,11,47) 5.61411 (1,12,46) -804.427 (1,12,48) 805.139 (1,13,47) -6.32647
(1,12,48): (1,11,48) 3.77126 (1,12,47) -805.139 (1,12,49) 805.616 (1,13,48) -4.24972
(1,12,49): (1,11,49) 1.89419 (1,12,48) -805.616 (1,12,50) 805.855 (1,13,49) -2.13439
(1,12,50): (1,11,50) 0.00000 (1,12,49) -805.855 (1,13,50) 0.00000
(1,13,1): (1,12,1) 0.00000 (1,13,2) 951.789 (1,14,1) 0.00000
(1,13,2): (1,12,2) 2.90481 (1,13,1) -951.789 (1,13,3) 953.453 (1,14,2) -4.55645
(1,13,3): (1,12,3) 5.87708 (1,13,2) -953.453 (1,13,4) 956.912 (1,14,3) -9.33110
(1,13,4): (1,12,4) 9.00352 (1,13,3) -956.912 (1,13,5) 962.504 (1,14,4) -14.5915
(1,13,5): (1,12,5) 12.4209 (1,13,4) -962.504 (1,13,6) 970.813 (1,14,5) -20.7264
(1,13,6): (1,12,6) 16.3731 (1,13,5) -970.813 (1,13,7) 982.814 (1,14,6) -28.3699
(1,13,7): (1,12,7) 21.3426 (1,13,6) -982.814 (1,13,8) 1000.13 (1,14,7) -38.6512
(1,13,8): (1,12,8) 28.4001 (1,13,7) -1000.13 (1,13,9) 1025.47 (1,14,8) -53.7327
(1,13,9): (1,12,9) 40.2835 (1,13,8) -1025.47 (1,13,10) 1063.22 (1,14,9) -78.0266
(1,13,10): (1,12,10) 65.2268 (1,13,9) -1063.22 (1,13,11) 1118.93 (1,14,10) -120.926
(1,13,11): (1,12,11) 132.294 (1,13,10) -1118.93 (1,13,12) 1188.82 (1,14,11) -202.174
(1,13,12): (1,12,12) 358.845 (1,13,11) -1188.82 (1,13,13) 1186.03 (1,14,12) -356.048
(1,13,13): (1,12,13) 1268.35 (1,13,12) -1186.03 (1,13,14) 500.240 (1,14,13) -582.552
(1,13,14): (1,12,14) 360.820 (1,13,13) -500.240 (1,13,15) 497.650 (1,14,14) -358.219
(1,13,15): (1,12,15) 136.248 (1,13,14) -497.650 (1,13,16) 567.939 (1,14,15) -206.526
(1,13,16): (1,12,16) 71.1740 (1,13,15) -567.939 (1,13,17) 624.258 (1,14,16) -127.483
(1,13,17): (1,12,17) 48.2421 (1,13,16) -624.258 (1,13,18) 662.847 (1,14,17) -86.8220
(1,13,18): (1,12,18) 38.3952 (1,13,17) -662.847 (1,13,19) 689.276 (1,14,18) -64.8137
(1,13,19): (1,12,19) 33.4048 (1,13,18) -689.276 (1,13,20) 707.960 (1,14,19) -52.0785
(1,13,20): (1,12,20) 30.5390 (1,13,19) -707.960 (1,13,21) 721.651 (1,14,20) -44.2200
(1,13,21): (1,12,21) 28.7335 (1,13,20) -721.651 (1,13,22) 732.024 (1,14,21) -39.0950
(1,13,22): (1,12,22) 27.5129 (1,13,21) -732.024 (1,13,23) 740.121 (1,14,22) -35.5977
(1,13,23): (1,12,23) 26.6408 (1,13,22) -740.121 (1,13,24) 746.616 (1,14,23) -33.1239
(1,13,24): (1,12,24) 25.9899 (1,13,23) -746.616 (1,13,25) 751.964 (1,14,24) -31.3245
(1,13,25): (1,12,25) 25.4872 (1,13,24) -751.964 (1,13,26) 756.478 (1,14,25) -29.9879
(1,13,26): (1,12,26) 25.0878 (1,13,25) -756.478 (1,13,27) 760.382 (1,14,26) -28.9794
(1,13,27): (1,12,27) 24.7619 (1,13,26) -760.382 (1,13,28) 763.842 (1,14,27) -28.2091
(1,13,28): (1,12,28) 24.4868 (1,13,27) -763.842 (1,13,29) 766.981 (1,14,28) -27.6129
(1,13,29): (1,12,29) 24.2430 (1,13,28) -766.981 (1,13,30) 769.889 (1,14,29) -27.1413
(1,13,30): (1,12,30) 24.0125 (1,13,29) -769.889 (1,13,31) 772.637 (1,14,30) -26.7535
(1,13,31): (1,12,31) 23.7776 (1,13,30) -772.637 (1,13,32) 775.279 (1,14,31) -26.4134
(1,13,32): (1,12,32) 23.5202 (1,13,31) -775.279 (1,13,33) 777.855 (1,14,32) -26.0883
(1,13,33): (1,12,33) 23.2200 (1,13,32) -777.855 (1,13,34) 780.391 (1,14,33) -25.7463
(1,13,34): (1,12,34) 22.8548 (1,13,33) -780.391 (1,13,35) 782.900 (1,14,34) -25.3549
(1,13,35): (1,12,35) 22.4020 (1,13,34) -782.900 (1,13,36) 785.387 (1,14,35) -24.8812
(1,13,36): (1,12,36) 21.8415 (1,13,35) -785.387 (1,13,37) 787.847 (1,14,36) -24.2949
(1,13,37): (1,12,37) 21.1554 (1,13,36) -787.847 (1,13,38) 790.269 (1,14,37) -23.5698
(1,13,38): (1,12,38) 20.3287 (1,13,37) -790.269 (1,13,39) 792.634 (1,14,38) -22.6849
(1,13,39): (1,12,39) 19.3490 (1,13,38) -792.634 (1,13,40) 794.917 (1,14,39) -21.6243
(1,13,40): (1,12,40) 18.2092 (1,13,39) -794.917 (1,13,41) 797.091 (1,14,40) -20.3782
(1,13,41): (1,12,41) 16.9090 (1,13,40) -797.091 (1,13,42) 799.127 (1,14,41) -18.9440
(1,13,42): (1,12,42) 15.4545 (1,13,41) -799.127 (1,13,43) 801.001 (1,14,42) -17.3279
(1,13,43): (1,12,43) 13.8563 (1,13,42) -801.001 (1,13,44) 802.689 (1,14,43) -15.5428
(1,13,44): (1,12,44) 12.1281 (1,13,43) -802.689 (1,13,45) 804.171 (1,14,44) -13.6063
(1,13,45): (1,12,45) 10.2851 (1,13,44) -804.171 (1,13,46) 805.427 (1,14,45) -11.5387
(1,13,46): (1,12,46) 8.34486 (1,13,45) -805.427 (1,13,47) 806.445 (1,14,46) -9.36142
(1,13,47): (1,12,47) 6.32647 (1,13,46) -806.445 (1,13,48) 807.216 (1,14,47) -7.09664
(1,13,48): (1,12,48) 4.24972 (1,13,47) -807.216 (1,13,49) 807.731 (1,14,48) -4.76675
(1,13,49): (1,12,49) 2.13439 (1,13,48) -807.731 (1,13,50) 807.989 (1,14,49) -2.39395
(1,13,50): (1,12,50) 0.00000 (1,13,49) -807.989 (1,14,50) 0.00000
(1,14,1): (1,13,1) 0.00000 (1,14,2) 947.233 (1,15,1) 0.00000
(1,14,2): (1,13,2) 4.55645 (1,14,1) -947.233 (1,14,3) 948.678 (1,15,2) -5.99027
(1,14,3): (1,13,3) 9.33110 (1,14,2) -948.678 (1,14,4) 951.652 (1,15,3) -12.2993
(1,14,4): (1,13,4) 14.5915 (1,14,3) -951.652 (1,14,5) 956.369 (1,15,4) -19.3048
(1,14,5): (1,13,5) 20.7264 (1,14,4) -956.369 (1,14,6) 963.169 (1,15,5) -27.5230
(1,14,6): (1,13,6) 28.3699 (1,14,5) -963.169 (1,14,7) 972.533 (1,15,6) -37.7292
(1,14,7): (1,13,7) 38.6512 (1,14,6) -972.533 (1,14,8) 985.047 (1,15,7) -51.1602
(1,14,8): (1,13,8) 53.7327 (1,14,7) -985.047 (1,14,9) 1001.17 (1,15,8) -69.8537
(1,14,9): (1,13,9) 78.0266 (1,14,8) -1001.17 (1,14,10) 1020.32 (1,15,9) -97.1647
(1,14,10): (1,13,10) 120.926 (1,14,9) -1020.32 (1,14,11) 1037.68 (1,15,10) -138.277
(1,14,11): (1,13,11) 202.174 (1,14,10) -1037.68 (1,14,12) 1034.94 (1,15,11) -199.427
(1,14,12): (1,13,12) 356.048 (1,14,11) -1034.94 (1,14,13) 959.525 (1,15,12) -280.621
(1,14,13): (1,13,13) 582.552 (1,14,12) -959.525 (1,14,14) 724.573 (1,15,13) -347.589
(1,14,14): (1,13,14) 358.219 (1,14,13) -724.573 (1,14,15) 649.342 (1,15,14) -282.977
(1,14,15): (1,13,15) 206.526 (1,14,14) -649.342 (1,14,16) 646.982 (1,15,15) -204.155
(1,14,16): (1,13,16) 127.483 (1,14,15) -646.982 (1,14,17) 664.918 (1,15,16) -145.409
(1,14,17): (1,13,17) 86.8220 (1,14,16) -664.918 (1,14,18) 684.856 (1,15,17) -106.749
(1,14,18): (1,13,18) 64.8137 (1,14,17) -684.856 (1,14,19) 702.011 (1,15,18) -81.9591
(1,14,19): (1,13,19) 52.0785 (1,14,18) -702.011 (1,14,20) 715.818 (1,15,19) -65.8756
(1,14,20): (1,13,20) 44.2200 (1,14,19) -715.818 (1,14,21) 726.776 (1,15,20) -55.1684
(1,14,21): (1,13,21) 39.0950 (1,14,20) -726.776 (1,14,22) 735.521 (1,15,21) -47.8299
(1,14,22): (1,13,22) 35.5977 (1,14,21) -735.521 (1,14,23) 742.594 (1,15,22) -42.6609
(1,14,23): (1,13,23) 33.1239 (1,14,22) -742.594 (1,14,24) 748.416 (1,15,23) -38.9342
(1,14,24): (1,13,24) 31.3245 (1,14,23) -748.416 (1,14,25) 753.301 (1,15,24) -36.1977
(1,14,25): (1,13,25) 29.9879 (1,14,24) -753.301 (1,14,26) 757.486 (1,15,25) -34.1617
(1,14,26): (1,13,26) 28.9794 (1,14,25) -757.486 (1,14,27) 761.153 (1,15,26) -32.6340
(1,14,27): (1,13,27) 28.2091 (1,14,26) -761.153 (1,14,28) 764.439 (1,15,27) -31.4831
(1,14,28): (1,13,28) 27.6129 (1,14,27) -764.439 (1,14,29) 767.452 (1,15,28) -30.6141
(1,14,29): (1,13,29) 27.1413 (1,14,28) -767.452 (1,14,30) 770.277 (1,15,29) -29.9547
(1,14,30): (1,13,30) 26.7535 (1,14,29) -770.277 (1,14,31) 772.977 (1,15,30) -29.4455
(1,14,31): (1,13,31) 26.4134 (1,14,30) -772.977 (1,14,32) 775.604 (1,15,31) -29.0348
(1,14,32): (1,13,32) 26.0883 (1,14,31) -775.604 (1,14,33) 778.197 (1,15,32) -28.6758
(1,14,33): (1,13,33) 25.7463 (1,14,32) -778.197 (1,14,34) 780.782 (1,15,33) -28.3246
(1,14,34): (1,13,34) 25.3549 (1,14,33) -780.782 (1,14,35) 783.374 (1,15,34) -27.9379
(1,14,35): (1,13,35) 24.8812 (1,14,34) -783.374 (1,14,36) 785.973 (1,15,35) -27.4728
(1,14,36): (1,13,36) 24.2949 (1,14,35) -785.973 (1,14,37) 788.572 (1,15,36) -26.8879
(1,14,37): (1,13,37) 23.5698 (1,14,36) -788.572 (1,14,38) 791.154 (1,15,37) -26.1466
(1,14,38): (1,13,38) 22.6849 (1,14,37) -791.154 (1,14,39) 793.695 (1,15,38) -25.2195
(1,14,39): (1,13,39) 21.6243 (1,14,38) -793.695 (1,14,40) 796.163 (1,15,39) -24.0857
(1,14,40): (1,13,40) 20.3782 (1,14,39) -796.163 (1,14,41) 798.525 (1,15,40) -22.7332
(1,14,41): (1,13,41) 18.9440 (1,14,40) -798.525 (1,14,42) 800.743 (1,15,41) -21.1590
(1,14,42): (1,13,42) 17.3279 (1,14,41) -800.743 (1,14,43) 802.786 (1,15,42) -19.3701
(1,14,43): (1,13,43) 15.5428 (1,14,42) -802.786 (1,14,44) 804.626 (1,15,43) -17.3823
(1,14,44): (1,13,44) 13.6063 (1,14,43) -804.626 (1,14,45) 806.238 (1,15,44) -15.2181
(1,14,45): (1,13,45) 11.5387 (1,14,44) -806.238 (1,14,46) 807.604 (1,15,45) -12.9035
(1,14,46): (1,13,46) 9.36142 (1,14,45) -807.604 (1,14,47) 808.710 (1,15,46) -10.4658
(1,14,47): (1,13,47) 7.09664 (1,14,46) -808.710 (1,14,48) 809.545 (1,15,47) -7.93145
(1,14,48): (1,13,48) 4.76675 (1,14,47) -809.545 (1,14,49) 810.104 (1,15,48) -5.32625
(1,14,49): (1,13,49) 2.39395 (1,14,48) -810.104 (1,14,50) 810.383 (1,15,49) -2.67459
(1,14,50): (1,13,50) 0.00000 (1,14,49) -810.383 (1,15,50) 0.00000
(1,15,1): (1,14,1) 0.00000 (1,15,2) 941.242 (1,16,1) 0.00000
(1,15,2): (1,14,2) 5.99027 (1,15,1) -941.242 (1,15,3) 942.369 (1,16,2) -7.10582
(1,15,3): (1,14,3) 12.2993 (1,15,2) -942.369 (1,15,4) 944.646 (1,16,3) -14.5709
(1,15,4): (1,14,4) 19.3048 (1,15,3) -944.646 (1,15,5) 948.151 (1,16,4) -22.8052
(1,15,5): (1,14,5) 27.5230 (1,15,4) -948.151 (1,15,6) 952.963 (1,16,5) -32.3315
(1,15,6): (1,14,6) 37.7292 (1,15,5) -952.963 (1,15,7) 959.102 (1,16,6) -43.8639
(1,15,7): (1,14,7) 51.1602 (1,15,6) -959.102 (1,15,8) 966.354 (1,16,7) -58.4073
(1,15,8): (1,14,8) 69.8537 (1,15,7) -966.354 (1,15,9) 973.864 (1,16,8) -77.3577
(1,15,9): (1,14,9) 97.1647 (1,15,8) -973.864 (1,15,10) 979.209 (1,16,9) -102.502
(1,15,10): (1,14,10) 138.277 (1,15,9) -979.209 (1,15,11) 976.532 (1,16,10) -135.591
(1,15,11): (1,14,11) 199.427 (1,15,10) -976.532 (1,15,12) 953.749 (1,16,11) -176.637
(1,15,12): (1,14,12) 280.621 (1,15,11) -953.749 (1,15,13) 892.557 (1,16,12) -219.420
(1,15,13): (1,14,13) 347.589 (1,15,12) -892.557 (1,15,14) 789.186 (1,16,13) -244.209
(1,15,14): (1,14,14) 282.977 (1,15,13) -789.186 (1,15,15) 728.165 (1,16,14) -221.945
(1,15,15): (1,14,15) 204.155 (1,15,14) -728.165 (1,15,16) 705.728 (1,16,15) -181.707
(1,15,16): (1,14,16) 145.409 (1,15,15) -705.728 (1,15,17) 703.578 (1,16,16) -143.248
(1,15,17): (1,14,17) 106.749 (1,15,16) -703.578 (1,15,18) 709.646 (1,16,17) -112.807
(1,15,18): (1,14,18) 81.9591 (1,15,17) -709.646 (1,15,19) 718.095 (1,16,18) -90.3979
(1,15,19): (1,14,19) 65.8756 (1,15,18) -718.095 (1,15,20) 726.525 (1,16,19) -74.2965
(1,15,20): (1,14,20) 55.1684 (1,15,19) -726.525 (1,15,21) 734.115 (1,16,20) -62.7483
(1,15,21): (1,14,21) 47.8299 (1,15,20) -734.115 (1,15,22) 740.690 (1,16,21) -54.3961
(1,15,22): (1,14,22) 42.6609 (1,15,21) -740.690 (1,15,23) 746.321 (1,16,22) -48.2830
(1,15,23): (1,14,23) 38.9342 (1,15,22) -746.321 (1,15,24) 751.152 (1,16,23) -43.7560
(1,15,24): (1,14,24) 36.1977 (1,15,23) -751.152 (1,15,25) 755.337 (1,16,24) -40.3722
(1,15,25): (1,14,25) 34.1617 (1,15,24) -755.337 (1,15,26) 759.014 (1,16,25) -37.8284
(1,15,26): (1,14,26) 32.6340 (1,15,25) -759.014 (1,15,27) 762.304 (1,16,26) -35.9135
(1,15,27): (1,14,27) 31.4831 (1,15,26) -762.304 (1,15,28) 765.308 (1,16,27) -34.4767
(1,15,28): (1,14,28) 30.6141 (1,15,27) -765.308 (1,15,29) 768.112 (1,16,28) -33.4067
(1,15,29): (1,14,29) 29.9547 (1,15,28) -768.112 (1,15,30) 770.786 (1,16,29) -32.6175
(1,15,30): (1,14,30) 29.4455 (1,15,29) -770.786 (1,15,31) 773.388 (1,16,30) -32.0374
(1,15,31): (1,14,31) 29.0348 (1,15,30) -773.388 (1,15,32) 775.963 (1,16,31) -31.6033
(1,15,32): (1,14,32) 28.6758 (1,15,31) -775.963 (1,15,33) 778.548 (1,16,32) -31.2564
(1,15,33): (1,14,33) 28.3246 (1,15,32) -778.548 (1,15,34) 781.169 (1,16,33) -30.9408
(1,15,34): (1,14,34) 27.9379 (1,15,33) -781.169 (1,15,35) 783.839 (1,16,34) -30.6017
(1,15,35): (1,14,35) 27.4728 (1,15,34) -783.839 (1,15,36) 786.558 (1,16,35) -30.1848
(1,15,36): (1,14,36) 26.8879 (1,15,35) -786.558 (1,15,37) 789.314 (1,16,36) -29.6371
(1,15,37): (1,14,37) 26.1466 (1,15,36) -789.314 (1,15,38) 792.081 (1,16,37) -28.9099
(1,15,38): (1,14,38) 25.2195 (1,15,37) -792.081 (1,15,39) 794.829 (1,16,38) -27.9630
(1,15,39): (1,14,39) 24.0857 (1,15,38) -794.829 (1,15,40) 797.516 (1,16,39) -26.7682
(1,15,40): (1,14,40) 22.7332 (1,15,39) -797.516 (1,15,41) 800.099 (1,16,40) -25.3103
(1,15,41): (1,14,41) 21.1590 (1,15,40) -800.099 (1,15,42) 802.532 (1,16,41) -23.5873
(1,15,42): (1,14,42) 19.3701 (1,15,41) -802.532 (1,15,43) 804.774 (1,16,42) -21.6095
(1,15,43): (1,14,43) 17.3823 (1,15,42) -804.774 (1,15,44) 806.790 (1,16,43) -19.3979
(1,15,44): (1,14,44) 15.2181 (1,15,43) -806.790 (1,15,45) 808.553 (1,16,44) -16.9814
(1,15,45): (1,14,45) 12.9035 (1,15,44) -808.553 (1,15,46) 810.042 (1,16,45) -14.3934
(1,15,46): (1,14,46) 10.4658 (1,15,45) -810.042 (1,15,47) 811.244 (1,16,46) -11.6680
(1,15,47): (1,14,47) 7.93145 (1,15,46) -811.244 (1,15,48) 812.151 (1,16,47) -8.83765
(1,15,48): (1,14,48) 5.32625 (1,15,47) -812.151 (1,15,49) 812.756 (1,16,48) -5.93202
(1,15,49): (1,14,49) 2.67459 (1,15,48) -812.756 (1,15,50) 813.058 (1,16,49) -2.97791
(1,15,50): (1,14,50) 0.00000 (1,15,49) -813.058 (1,16,50) 0.00000
(1,16,1): (1,15,1) 0.00000 (1,16,2) 934.137 (1,17,1) 0.00000
(1,16,2): (1,15,2) 7.10582 (1,16,1) -934.137 (1,16,3) 934.904 (1,17,2) -7.86268
(1,16,3): (1,15,3) 14.5709 (1,16,2) -934.904 (1,16,4) 936.412 (1,17,3) -16.0733
(1,16,4): (1,15,4) 22.8052 (1,16,3) -936.412 (1,16,5) 938.625 (1,17,4) -25.0133
(1,16,5): (1,15,5) 32.3315 (1,16,4) -938.625 (1,16,6) 941.431 (1,17,5) -35.1335
(1,16,6): (1,15,6) 43.8639 (1,16,5) -941.431 (1,16,7) 944.558 (1,17,6) -46.9875
(1,16,7): (1,15,7) 58.4073 (1,16,6) -944.558 (1,16,8) 947.403 (1,17,7) -61.2479
(1,16,8): (1,15,8) 77.3577 (1,16,7) -947.403 (1,16,9) 948.719 (1,17,8) -78.6684
(1,16,9): (1,15,9) 102.502 (1,16,8) -948.719 (1,16,10) 946.120 (1,17,9) -99.8958
(1,16,10): (1,15,10) 135.591 (1,16,9) -946.120 (1,16,11) 935.486 (1,17,10) -124.949
(1,16,11): (1,15,11) 176.637 (1,16,10) -935.486 (1,16,12) 910.966 (1,17,11) -152.109
(1,16,12): (1,15,12) 219.420 (1,16,11) -910.966 (1,16,13) 867.768 (1,17,12) -176.213
(1,16,13): (1,15,13) 244.209 (1,16,12) -867.768 (1,16,14) 811.450 (1,17,13) -187.882
(1,16,14): (1,15,14) 221.945 (1,16,13) -811.450 (1,16,15) 768.402 (1,17,14) -178.887
(1,16,15): (1,15,15) 181.707 (1,16,14) -768.402 (1,16,16) 744.187 (1,17,15) -157.482
(1,16,16): (1,15,16) 143.248 (1,16,15) -744.187 (1,16,17) 734.018 (1,17,16) -133.069
(1,16,17): (1,15,17) 112.807 (1,16,16) -734.018 (1,16,18) 732.055 (1,17,17) -110.835
(1,16,18): (1,15,18) 90.3979 (1,16,17) -732.055 (1,16,19) 734.196 (1,17,18) -92.5290
(1,16,19): (1,15,19) 74.2965 (1,16,18) -734.196 (1,16,20) 738.073 (1,17,19) -78.1644
(1,16,20): (1,15,20) 62.7483 (1,16,19) -738.073 (1,16,21) 742.467 (1,17,20) -67.1321
(1,16,21): (1,15,21) 54.3961 (1,16,20) -742.467 (1,16,22) 746.803 (1,17,21) -58.7233
(1,16,22): (1,15,22) 48.2830 (1,16,21) -746.803 (1,16,23) 750.848 (1,17,22) -52.3197
(1,16,23): (1,15,23) 43.7560 (1,16,22) -750.848 (1,16,24) 754.536 (1,17,23) -47.4360
(1,16,24): (1,15,24) 40.3722 (1,16,23) -754.536 (1,16,25) 757.881 (1,17,24) -43.7082
(1,16,25): (1,15,25) 37.8284 (1,16,24) -757.881 (1,16,26) 760.929 (1,17,25) -40.8677
(1,16,26): (1,15,26) 35.9135 (1,16,25) -760.929 (1,16,27) 763.740 (1,17,26) -38.7162
(1,16,27): (1,15,27) 34.4767 (1,16,26) -763.740 (1,16,28) 766.378 (1,17,27) -37.1052
(1,16,28): (1,15,28) 33.4067 (1,16,27) -766.378 (1,16,29) 768.901 (1,17,28) -35.9208
(1,16,29): (1,15,29) 32.6175 (1,16,28) -768.901 (1,16,30) 771.366 (1,17,29) -35.0723
(1,16,30): (1,15,30) 32.0374 (1,16,29) -771.366 (1,16,31) 773.822 (1,17,30) -34.4829
(1,16,31): (1,15,31) 31.6033 (1,16,30) -773.822 (1,16,32) 776.310 (1,17,31) -34.0829
(1,16,32): (1,15,32) 31.2564 (1,16,31) -776.310 (1,16,33) 778.864 (1,17,32) -33.8048
(1,16,33): (1,15,33) 30.9408 (1,16,32) -778.864 (1,16,34) 781.508 (1,17,33) -33.5816
(1,16,34): (1,15,34) 30.6017 (1,16,33) -781.508 (1,16,35) 784.256 (1,17,34) -33.3458
(1,16,35): (1,15,35) 30.1848 (1,16,34) -784.256 (1,16,36) 787.106 (1,17,35) -33.0298
(1,16,36): (1,15,36) 29.6371 (1,16,35) -787.106 (1,16,37) 790.041 (1,17,36) -32.5664
(1,16,37): (1,15,37) 28.9099 (1,16,36) -790.041 (1,16,38) 793.028 (1,17,37) -31.8927
(1,16,38): (1,15,38) 27.9630 (1,16,37) -793.028 (1,16,39) 796.023 (1,17,38) -30.9554
(1,16,39): (1,15,39) 26.7682 (1,16,38) -796.023 (1,16,40) 798.974 (1,17,39) -29.7159
(1,16,40): (1,15,40) 25.3103 (1,16,39) -798.974 (1,16,41) 801.822 (1,17,40) -28.1546
(1,16,41): (1,15,41) 23.5873 (1,16,40) -801.822 (1,16,42) 804.510 (1,17,41) -26.2710
(1,16,42): (1,15,42) 21.6095 (1,16,41) -804.510 (1,16,43) 806.986 (1,17,42) -24.0817
(1,16,43): (1,15,43) 19.3979 (1,16,42) -806.986 (1,16,44) 809.206 (1,17,43) -21.6169
(1,16,44): (1,15,44) 16.9814 (1,16,43) -809.206 (1,16,45) 811.141 (1,17,44) -18.9158
(1,16,45): (1,15,45) 14.3934 (1,16,44) -811.141 (1,16,46) 812.768 (1,17,45) -16.0214
(1,16,46): (1,15,46) 11.6680 (1,16,45) -812.768 (1,16,47) 814.075 (1,17,46) -12.9764
(1,16,47): (1,15,47) 8.83765 (1,16,46) -814.075 (1,16,48) 815.056 (1,17,47) -9.82016
(1,16,48): (1,15,48) 5.93202 (1,16,47) -815.056 (1,16,49) 815.710 (1,17,48) -6.58669
(1,16,49): (1,15,49) 2.97791 (1,16,48) -815.710 (1,16,50) 816.036 (1,17,49) -3.30496
(1,16,50): (1,15,50) 0.00000 (1,16,49) -816.036 (1,17,50) 0.00000
(1,17,1): (1,16,1) 0.00000 (1,17,2) 926.274 (1,18,1) 0.00000
(1,17,2): (1,16,2) 7.86268 (1,17,1) -926.274 (1,17,3) 926.693 (1,18,2) -8.27216
(1,17,3): (1,16,3) 16.0733 (1,17,2) -926.693 (1,17,4) 927.472 (1,18,3) -16.8466
(1,17,4): (1,16,4) 25.0133 (1,17,3) -927.472 (1,17,5) 928.504 (1,18,4) -26.0409
(1,17,5): (1,16,5) 35.1335 (1,17,4) -928.504 (1,17,6) 929.577 (1,18,5) -36.2016
(1,17,6): (1,16,6) 46.9875 (1,17,5) -929.577 (1,17,7) 930.298 (1,18,6) -47.7045
(1,17,7): (1,16,7) 61.2479 (1,17,6) -930.298 (1,17,8) 929.983 (1,18,7) -60.9287
(1,17,8): (1,16,8) 78.6684 (1,17,7) -929.983 (1,17,9) 927.492 (1,18,8) -76.1728
(1,17,9): (1,16,9) 99.8958 (1,17,8) -927.492 (1,17,10) 921.067 (1,18,9) -93.4641
(1,17,10): (1,16,10) 124.949 (1,17,9) -921.067 (1,17,11) 908.327 (1,18,10) -112.202
(1,17,11): (1,16,11) 152.109 (1,17,10) -908.327 (1,17,12) 886.862 (1,18,11) -130.637
(1,17,12): (1,16,12) 176.213 (1,17,11) -886.862 (1,17,13) 856.098 (1,18,12) -145.442
(1,17,13): (1,16,13) 187.882 (1,17,12) -856.098 (1,17,14) 820.444 (1,18,13) -152.221
(1,17,14): (1,16,14) 178.887 (1,17,13) -820.444 (1,17,15) 789.808 (1,18,14) -148.242
(1,17,15): (1,16,15) 157.482 (1,17,14) -789.808 (1,17,16) 768.601 (1,18,15) -136.264
(1,17,16): (1,16,16) 133.069 (1,17,15) -768.601 (1,17,17) 756.252 (1,18,16) -120.710
(1,17,17): (1,16,17) 110.835 (1,17,16) -756.252 (1,17,18) 750.361 (1,18,17) -104.935
(1,17,18): (1,16,18) 92.5290 (1,17,17) -750.361 (1,17,19) 748.561 (1,18,18) -90.7197
(1,17,19): (1,16,19) 78.1644 (1,17,18) -748.561 (1,17,20) 749.106 (1,18,19) -78.7009
(1,17,20): (1,16,20) 67.1321 (1,17,19) -749.106 (1,17,21) 750.876 (1,18,20) -68.8928
(1,17,21): (1,16,21) 58.7233 (1,17,20) -750.876 (1,17,22) 753.207 (1,18,21) -61.0453
(1,17,22): (1,16,22) 52.3197 (1,17,21) -753.207 (1,17,23) 755.732 (1,18,22) -54.8366
(1,17,23): (1,16,23) 47.4360 (1,17,22) -755.732 (1,17,24) 758.264 (1,18,23) -49.9608
(1,17,24): (1,16,24) 43.7082 (1,17,23) -758.264 (1,17,25) 760.721 (1,18,24) -46.1582
(1,17,25): (1,16,25) 40.8677 (1,17,24) -760.721 (1,17,26) 763.080 (1,18,25) -43.2195
(1,17,26): (1,16,26) 38.7162 (1,17,25) -763.080 (1,17,27) 765.351 (1,18,26) -40.9798
(1,17,27): (1,16,27) 37.1052 (1,17,26) -765.351 (1,17,28) 767.562 (1,18,27) -39.3085
(1,17,28): (1,16,28) 35.9208 (1,17,27) -767.562 (1,17,29) 769.749 (1,18,28) -38.1009
(1,17,29): (1,16,29) 35.0723 (1,17,28) -769.749 (1,17,30) 771.955 (1,18,29) -37.2703
[...]
(1,47,46): (1,46,46) -4.88488 (1,47,45) -837.174 (1,47,47) 838.461 (1,48,46) 3.59366
(1,47,47): (1,46,47) -3.71956 (1,47,46) -838.461 (1,47,48) 839.439 (1,48,47) 2.73950
(1,47,48): (1,46,48) -2.50469 (1,47,47) -839.439 (1,47,49) 840.096 (1,48,48) 1.84623
(1,47,49): (1,46,49) -1.25941 (1,47,48) -840.096 (1,47,50) 840.426 (1,48,49) 0.928693
(1,47,50): (1,46,50) 0.00000 (1,47,49) -840.426 (1,48,50) 0.00000
(1,48,1): (1,47,1) 0.00000 (1,48,2) 817.729 (1,49,1) 0.00000
(1,48,2): (1,47,2) 0.259253 (1,48,1) -817.729 (1,48,3) 817.627 (1,49,2) -0.169874
(1,48,3): (1,47,3) 0.515829 (1,48,2) -817.627 (1,48,4) 817.444 (1,49,3) -0.337612
(1,48,4): (1,47,4) 0.766829 (1,48,3) -817.444 (1,48,5) 817.176 (1,49,4) -0.502130
(1,48,5): (1,47,5) 1.00957 (1,48,4) -817.176 (1,48,6) 816.824 (1,49,5) -0.661663
(1,48,6): (1,47,6) 1.24118 (1,48,5) -816.824 (1,48,7) 816.394 (1,49,6) -0.814297
(1,48,7): (1,47,7) 1.45849 (1,48,6) -816.394 (1,48,8) 815.889 (1,49,7) -0.957996
(1,48,8): (1,47,8) 1.65811 (1,48,7) -815.889 (1,48,9) 815.314 (1,49,8) -1.09043
(1,48,9): (1,47,9) 1.83695 (1,48,8) -815.314 (1,48,10) 814.677 (1,49,9) -1.20911
(1,48,10): (1,47,10) 1.99269 (1,48,9) -814.677 (1,48,11) 813.986 (1,49,10) -1.31199
(1,48,11): (1,47,11) 2.12356 (1,48,10) -813.986 (1,48,12) 813.249 (1,49,11) -1.39774
(1,48,12): (1,47,12) 2.22760 (1,48,11) -813.249 (1,48,13) 812.476 (1,49,12) -1.46551
(1,48,13): (1,47,13) 2.30219 (1,48,12) -812.476 (1,48,14) 811.678 (1,49,13) -1.51412
(1,48,14): (1,47,14) 2.34440 (1,48,13) -811.678 (1,48,15) 810.864 (1,49,14) -1.54178
(1,48,15): (1,47,15) 2.35171 (1,48,14) -810.864 (1,48,16) 810.045 (1,49,15) -1.54646
(1,48,16): (1,47,16) 2.32231 (1,48,15) -810.045 (1,48,17) 809.234 (1,49,16) -1.52642
(1,48,17): (1,47,17) 2.25470 (1,48,16) -809.234 (1,48,18) 808.445 (1,49,17) -1.48043
(1,48,18): (1,47,18) 2.14726 (1,48,17) -808.445 (1,48,19) 807.690 (1,49,18) -1.40754
(1,48,19): (1,47,19) 1.99801 (1,48,18) -807.690 (1,48,20) 806.984 (1,49,19) -1.30676
(1,48,20): (1,47,20) 1.80475 (1,48,19) -806.984 (1,48,21) 806.342 (1,49,20) -1.17693
(1,48,21): (1,47,21) 1.56522 (1,48,20) -806.342 (1,48,22) 805.780 (1,49,21) -1.01672
(1,48,22): (1,47,22) 1.27731 (1,48,21) -805.780 (1,48,23) 805.314 (1,49,22) -0.824804
(1,48,23): (1,47,23) 0.939155 (1,48,22) -805.314 (1,48,24) 804.959 (1,49,23) -0.599918
(1,48,24): (1,47,24) 0.549501 (1,48,23) -804.959 (1,48,25) 804.734 (1,49,24) -0.341127
(1,48,25): (1,47,25) 0.108015 (1,48,24) -804.734 (1,48,26) 804.656 (1,49,25) -4.814562E-02
(1,48,26): (1,47,26) -0.384360 (1,48,25) -804.656 (1,48,27) 804.743 (1,49,26) 0.278331
(1,48,27): (1,47,27) -0.925159 (1,48,26) -804.743 (1,48,28) 805.014 (1,49,27) 0.636391
(1,48,28): (1,47,28) -1.51012 (1,48,27) -805.014 (1,48,29) 805.484 (1,49,28) 1.02277
(1,48,29): (1,47,29) -2.13282 (1,48,28) -805.484 (1,48,30) 806.169 (1,49,29) 1.43272
(1,48,30): (1,47,30) -2.78417 (1,48,29) -806.169 (1,48,31) 807.078 (1,49,30) 1.85985
(1,48,31): (1,47,31) -3.45193 (1,48,30) -807.078 (1,48,32) 808.220 (1,49,31) 2.29587
(1,48,32): (1,47,32) -4.12041 (1,48,31) -808.220 (1,48,33) 809.596 (1,49,32) 2.73048
(1,48,33): (1,47,33) -4.77036 (1,48,32) -809.596 (1,48,34) 811.201 (1,49,33) 3.15131
(1,48,34): (1,47,34) -5.37942 (1,48,33) -811.201 (1,48,35) 813.021 (1,49,34) 3.54418
(1,48,35): (1,47,35) -5.92315 (1,48,34) -813.021 (1,48,36) 815.037 (1,49,35) 3.89365
(1,48,36): (1,47,36) -6.37676 (1,48,35) -815.037 (1,48,37) 817.217 (1,49,36) 4.18412
(1,48,37): (1,47,37) -6.71721 (1,48,36) -817.217 (1,48,38) 819.520 (1,49,37) 4.40114
(1,48,38): (1,47,38) -6.92524 (1,48,37) -819.520 (1,48,39) 821.901 (1,49,38) 4.53277
(1,48,39): (1,47,39) -6.98713 (1,48,38) -821.901 (1,48,40) 824.307 (1,49,39) 4.57055
(1,48,40): (1,47,40) -6.89600 (1,48,39) -824.307 (1,48,41) 826.684 (1,49,40) 4.51017
(1,48,41): (1,47,41) -6.65257 (1,48,40) -826.684 (1,48,42) 828.977 (1,49,41) 4.35178
(1,48,42): (1,47,42) -6.26485 (1,48,41) -828.977 (1,48,43) 831.135 (1,49,42) 4.09999
(1,48,43): (1,47,43) -5.74680 (1,48,42) -831.135 (1,48,44) 833.112 (1,49,43) 3.76325
(1,48,44): (1,47,44) -5.11609 (1,48,43) -833.112 (1,48,45) 834.869 (1,49,44) 3.35258
(1,48,45): (1,47,45) -4.39196 (1,48,44) -834.869 (1,48,46) 836.376 (1,49,45) 2.88013
(1,48,46): (1,47,46) -3.59366 (1,48,45) -836.376 (1,48,47) 837.607 (1,49,46) 2.35812
(1,48,47): (1,47,47) -2.73950 (1,48,46) -837.607 (1,48,48) 838.545 (1,49,47) 1.79836
(1,48,48): (1,47,48) -1.84623 (1,48,47) -838.545 (1,48,49) 839.178 (1,49,48) 1.21197
(1,48,49): (1,47,49) -0.928693 (1,48,48) -839.178 (1,48,50) 839.498 (1,49,49) 0.609326
(1,48,50): (1,47,50) 0.00000 (1,48,49) -839.498 (1,49,50) 0.00000
(1,49,1): (1,48,1) 0.00000 (1,49,2) 817.560 (1,50,1) 0.00000
(1,49,2): (1,48,2) 0.169874 (1,49,1) -817.560 (1,49,3) 817.459 (1,50,2) -8.301237E-02
(1,49,3): (1,48,3) 0.337612 (1,49,2) -817.459 (1,49,4) 817.279 (1,50,3) -0.162623
(1,49,4): (1,48,4) 0.502130 (1,49,3) -817.279 (1,49,5) 817.016 (1,50,4) -0.242921
(1,49,5): (1,48,5) 0.661663 (1,49,4) -817.016 (1,49,6) 816.671 (1,50,5) -0.321691
(1,49,6): (1,48,6) 0.814297 (1,49,5) -816.671 (1,49,7) 816.250 (1,50,6) -0.397386
(1,49,7): (1,48,7) 0.957996 (1,49,6) -816.250 (1,49,8) 815.756 (1,50,7) -0.469001
(1,49,8): (1,48,8) 1.09043 (1,49,7) -815.756 (1,49,9) 815.196 (1,50,8) -0.535528
(1,49,9): (1,48,9) 1.20911 (1,49,8) -815.196 (1,49,10) 814.575 (1,50,9) -0.595624
(1,49,10): (1,48,10) 1.31199 (1,49,9) -814.575 (1,49,11) 813.900 (1,50,10) -0.647792
(1,49,11): (1,48,11) 1.39774 (1,49,10) -813.900 (1,49,12) 813.181 (1,50,11) -0.690913
(1,49,12): (1,48,12) 1.46551 (1,49,11) -813.181 (1,49,13) 812.428 (1,50,12) -0.724513
(1,49,13): (1,48,13) 1.51412 (1,49,12) -812.428 (1,49,14) 811.651 (1,50,13) -0.748422
(1,49,14): (1,48,14) 1.54178 (1,49,13) -811.651 (1,49,15) 810.860 (1,50,14) -0.762211
(1,49,15): (1,48,15) 1.54646 (1,49,14) -810.860 (1,49,16) 810.065 (1,50,15) -0.764967
(1,49,16): (1,48,16) 1.52642 (1,49,15) -810.065 (1,49,17) 809.280 (1,50,16) -0.755562
(1,49,17): (1,48,17) 1.48043 (1,49,16) -809.280 (1,49,18) 808.517 (1,50,17) -0.733028
(1,49,18): (1,48,18) 1.40754 (1,49,17) -808.517 (1,49,19) 807.790 (1,50,18) -0.696717
(1,49,19): (1,48,19) 1.30676 (1,49,18) -807.790 (1,49,20) 807.114 (1,50,19) -0.646199
(1,49,20): (1,48,20) 1.17693 (1,49,19) -807.114 (1,49,21) 806.503 (1,50,20) -0.581101
(1,49,21): (1,48,21) 1.01672 (1,49,20) -806.503 (1,49,22) 805.972 (1,50,21) -0.501004
(1,49,22): (1,48,22) 0.824804 (1,49,21) -805.972 (1,49,23) 805.539 (1,50,22) -0.405415
(1,49,23): (1,48,23) 0.599918 (1,49,22) -805.539 (1,49,24) 805.218 (1,50,23) -0.293768
(1,49,24): (1,48,24) 0.341127 (1,49,23) -805.218 (1,49,25) 805.027 (1,50,24) -0.165520
(1,49,25): (1,48,25) 4.814562E-02 (1,49,24) -805.027 (1,49,26) 804.982 (1,50,25) -2.034314E-02
(1,49,26): (1,48,26) -0.278331 (1,49,25) -804.982 (1,49,27) 805.101 (1,50,26) 0.141591
(1,49,27): (1,48,27) -0.636391 (1,49,26) -805.101 (1,49,28) 805.400 (1,50,27) 0.319377
(1,49,28): (1,48,28) -1.02277 (1,49,27) -805.400 (1,49,29) 805.894 (1,50,28) 0.511257
(1,49,29): (1,48,29) -1.43272 (1,49,28) -805.894 (1,49,30) 806.596 (1,50,29) 0.714607
(1,49,30): (1,48,30) -1.85985 (1,49,29) -806.596 (1,49,31) 807.514 (1,50,30) 0.925965
(1,49,31): (1,48,31) -2.29587 (1,49,30) -807.514 (1,49,32) 808.655 (1,50,31) 1.14103
(1,49,32): (1,48,32) -2.73048 (1,49,31) -808.655 (1,49,33) 810.017 (1,50,32) 1.35465
(1,49,33): (1,48,33) -3.15131 (1,49,32) -810.017 (1,49,34) 811.593 (1,50,33) 1.56085
(1,49,34): (1,48,34) -3.54418 (1,49,33) -811.593 (1,49,35) 813.371 (1,50,34) 1.75288
(1,49,35): (1,48,35) -3.89365 (1,49,34) -813.371 (1,49,36) 815.327 (1,50,35) 1.92340
(1,49,36): (1,48,36) -4.18412 (1,49,35) -815.327 (1,49,37) 817.434 (1,50,36) 2.06491
(1,49,37): (1,48,37) -4.40114 (1,49,36) -817.434 (1,49,38) 819.652 (1,50,37) 2.17039
(1,49,38): (1,48,38) -4.53277 (1,49,37) -819.652 (1,49,39) 821.939 (1,50,38) 2.23408
(1,49,39): (1,48,39) -4.57055 (1,49,38) -821.939 (1,49,40) 824.247 (1,50,39) 2.25194
(1,49,40): (1,48,40) -4.51017 (1,49,39) -824.247 (1,49,41) 826.525 (1,50,40) 2.22191
(1,49,41): (1,48,41) -4.35178 (1,49,40) -826.525 (1,49,42) 828.725 (1,50,41) 2.14397
(1,49,42): (1,48,42) -4.09999 (1,49,41) -828.725 (1,49,43) 830.798 (1,50,42) 2.02011
(1,49,43): (1,48,43) -3.76325 (1,49,42) -830.798 (1,49,44) 832.701 (1,50,43) 1.85425
(1,49,44): (1,48,44) -3.35258 (1,49,43) -832.701 (1,49,45) 834.397 (1,50,44) 1.65171
(1,49,45): (1,48,45) -2.88013 (1,49,44) -834.397 (1,49,46) 835.854 (1,50,45) 1.41853
(1,49,46): (1,48,46) -2.35812 (1,49,45) -835.854 (1,49,47) 837.047 (1,50,46) 1.16073
(1,49,47): (1,48,47) -1.79836 (1,49,46) -837.047 (1,49,48) 837.959 (1,50,47) 0.884088
(1,49,48): (1,48,48) -1.21197 (1,49,47) -837.959 (1,49,49) 838.576 (1,50,48) 0.594230
(1,49,49): (1,48,49) -0.609326 (1,49,48) -838.576 (1,49,50) 838.888 (1,50,49) 0.297029
(1,49,50): (1,48,50) 0.00000 (1,49,49) -838.888 (1,50,50) 0.00000
(1,50,1): (1,49,1) 0.00000 (1,50,2) 817.477
(1,50,2): (1,49,2) 8.301237E-02 (1,50,1) -817.477 (1,50,3) 817.379
(1,50,3): (1,49,3) 0.162623 (1,50,2) -817.379 (1,50,4) 817.199
(1,50,4): (1,49,4) 0.242921 (1,50,3) -817.199 (1,50,5) 816.937
(1,50,5): (1,49,5) 0.321691 (1,50,4) -816.937 (1,50,6) 816.596
(1,50,6): (1,49,6) 0.397386 (1,50,5) -816.596 (1,50,7) 816.178
(1,50,7): (1,49,7) 0.469001 (1,50,6) -816.178 (1,50,8) 815.690
(1,50,8): (1,49,8) 0.535528 (1,50,7) -815.690 (1,50,9) 815.136
(1,50,9): (1,49,9) 0.595624 (1,50,8) -815.136 (1,50,10) 814.522
(1,50,10): (1,49,10) 0.647792 (1,50,9) -814.522 (1,50,11) 813.857
(1,50,11): (1,49,11) 0.690913 (1,50,10) -813.857 (1,50,12) 813.147
(1,50,12): (1,49,12) 0.724513 (1,50,11) -813.147 (1,50,13) 812.404
(1,50,13): (1,49,13) 0.748422 (1,50,12) -812.404 (1,50,14) 811.637
(1,50,14): (1,49,14) 0.762211 (1,50,13) -811.637 (1,50,15) 810.857
(1,50,15): (1,49,15) 0.764967 (1,50,14) -810.857 (1,50,16) 810.075
(1,50,16): (1,49,16) 0.755562 (1,50,15) -810.075 (1,50,17) 809.303
(1,50,17): (1,49,17) 0.733028 (1,50,16) -809.303 (1,50,18) 808.554
(1,50,18): (1,49,18) 0.696717 (1,50,17) -808.554 (1,50,19) 807.841
(1,50,19): (1,49,19) 0.646199 (1,50,18) -807.841 (1,50,20) 807.179
(1,50,20): (1,49,20) 0.581101 (1,50,19) -807.179 (1,50,21) 806.583
(1,50,21): (1,49,21) 0.501004 (1,50,20) -806.583 (1,50,22) 806.068
(1,50,22): (1,49,22) 0.405415 (1,50,21) -806.068 (1,50,23) 805.650
(1,50,23): (1,49,23) 0.293768 (1,50,22) -805.650 (1,50,24) 805.346
(1,50,24): (1,49,24) 0.165520 (1,50,23) -805.346 (1,50,25) 805.172
(1,50,25): (1,49,25) 2.034314E-02 (1,50,24) -805.172 (1,50,26) 805.144
(1,50,26): (1,49,26) -0.141591 (1,50,25) -805.144 (1,50,27) 805.279
(1,50,27): (1,49,27) -0.319377 (1,50,26) -805.279 (1,50,28) 805.592
(1,50,28): (1,49,28) -0.511257 (1,50,27) -805.592 (1,50,29) 806.098
(1,50,29): (1,49,29) -0.714607 (1,50,28) -806.098 (1,50,30) 806.807
(1,50,30): (1,49,30) -0.925965 (1,50,29) -806.807 (1,50,31) 807.729
(1,50,31): (1,49,31) -1.14103 (1,50,30) -807.729 (1,50,32) 808.868
(1,50,32): (1,49,32) -1.35465 (1,50,31) -808.868 (1,50,33) 810.223
(1,50,33): (1,49,33) -1.56085 (1,50,32) -810.223 (1,50,34) 811.785
(1,50,34): (1,49,34) -1.75288 (1,50,33) -811.785 (1,50,35) 813.541
(1,50,35): (1,49,35) -1.92340 (1,50,34) -813.541 (1,50,36) 815.469
(1,50,36): (1,49,36) -2.06491 (1,50,35) -815.469 (1,50,37) 817.539
(1,50,37): (1,49,37) -2.17039 (1,50,36) -817.539 (1,50,38) 819.716
(1,50,38): (1,49,38) -2.23408 (1,50,37) -819.716 (1,50,39) 821.957
(1,50,39): (1,49,39) -2.25194 (1,50,38) -821.957 (1,50,40) 824.217
(1,50,40): (1,49,40) -2.22191 (1,50,39) -824.217 (1,50,41) 826.447
(1,50,41): (1,49,41) -2.14397 (1,50,40) -826.447 (1,50,42) 828.601
(1,50,42): (1,49,42) -2.02011 (1,50,41) -828.601 (1,50,43) 830.632
(1,50,43): (1,49,43) -1.85425 (1,50,42) -830.632 (1,50,44) 832.499
(1,50,44): (1,49,44) -1.65171 (1,50,43) -832.499 (1,50,45) 834.164
(1,50,45): (1,49,45) -1.41853 (1,50,44) -834.164 (1,50,46) 835.596
(1,50,46): (1,49,46) -1.16073 (1,50,45) -835.596 (1,50,47) 836.771
(1,50,47): (1,49,47) -0.884088 (1,50,46) -836.771 (1,50,48) 837.669
(1,50,48): (1,49,48) -0.594230 (1,50,47) -837.669 (1,50,49) 838.279
(1,50,49): (1,49,49) -0.297029 (1,50,48) -838.279 (1,50,50) 838.591
(1,50,50): (1,49,50) 0.00000 (1,50,49) -838.591

 WEL PACKAGE (WEL-1) FLOW RATES   PERIOD      1   STEP        1
 -----------------------------------------------
   NUMBER   CELLID                    RATE      
 -----------------------------------------------
     1      (1,12,13)             5000.0000     
     2      (1,31,39)            -3000.0000     
 -----------------------------------------------




 CHD PACKAGE (CHD-1) FLOW RATES   PERIOD      1   STEP        1
 -----------------------------------------------
   NUMBER   CELLID                    RATE      
 -----------------------------------------------
     1      (1,1,1)              -932.08471     
     2      (1,2,1)              -932.97367     
     3      (1,3,1)              -934.71716     
     4      (1,4,1)              -937.21924     
     5      (1,5,1)              -940.32988     
     6      (1,6,1)              -943.83710     
     7      (1,7,1)              -947.46270     
     8      (1,8,1)              -950.86600     
     9      (1,9,1)              -953.66091     
     10     (1,10,1)             -955.45074     
     11     (1,11,1)             -955.87991     
     12     (1,12,1)             -954.69388     
     13     (1,13,1)             -951.78907     
     14     (1,14,1)             -947.23262     
     15     (1,15,1)             -941.24236     
     16     (1,16,1)             -934.13654     
     17     (1,17,1)             -926.27386     
     18     (1,18,1)             -918.00170     
     19     (1,19,1)             -909.62169     
     20     (1,20,1)             -901.37337     
     21     (1,21,1)             -893.43178     
     22     (1,22,1)             -885.91376     
     23     (1,23,1)             -878.88826     
     24     (1,24,1)             -872.38750     
     25     (1,25,1)             -866.41725     
     26     (1,26,1)             -860.96531     
     27     (1,27,1)             -856.00810     
     28     (1,28,1)             -851.51552     
     29     (1,29,1)             -847.45436     
     30     (1,30,1)             -843.79066     
     31     (1,31,1)             -840.49118     
     32     (1,32,1)             -837.52430     
     33     (1,33,1)             -834.86053     
     34     (1,34,1)             -832.47266     
     35     (1,35,1)             -830.33584     
     36     (1,36,1)             -828.42749     
     37     (1,37,1)             -826.72719     
     38     (1,38,1)             -825.21663     
     39     (1,39,1)             -823.87946     
     40     (1,40,1)             -822.70112     
     41     (1,41,1)             -821.66868     
     42     (1,42,1)             -820.77067     
     43     (1,43,1)             -819.99700     
     44     (1,44,1)             -819.33887     
     45     (1,45,1)             -818.78878     
     46     (1,46,1)             -818.34044     
     47     (1,47,1)             -817.98869     
     48     (1,48,1)             -817.72944     
     49     (1,49,1)             -817.55957     
     50     (1,50,1)             -817.47655     
     51     (1,1,50)              795.36201     
     52     (1,2,50)              795.49632     
     53     (1,3,50)              795.78229     
     54     (1,4,50)              796.21914     
     55     (1,5,50)              796.80913     
     56     (1,6,50)              797.55697     
     57     (1,7,50)              798.46962     
     58     (1,8,50)              799.55575     
     59     (1,9,50)              800.82523     
     60     (1,10,50)             802.28920     
     61     (1,11,50)             803.96065     
     62     (1,12,50)             805.85484     
     63     (1,13,50)             807.98923     
     64     (1,14,50)             810.38318     
     65     (1,15,50)             813.05777     
     66     (1,16,50)             816.03569     
     67     (1,17,50)             819.34065     
     68     (1,18,50)             822.99610     
     69     (1,19,50)             827.02299     
     70     (1,20,50)             831.43655     
     71     (1,21,50)             836.24159     
     72     (1,22,50)             841.42606     
     73     (1,23,50)             846.95228     
     74     (1,24,50)             852.74647     
     75     (1,25,50)             858.68735     
     76     (1,26,50)             864.59640     
     77     (1,27,50)             870.23410     
     78     (1,28,50)             875.30798     
     79     (1,29,50)             879.49895     
     80     (1,30,50)             882.50835     
     81     (1,31,50)             884.11888     
     82     (1,32,50)             884.24989     
     83     (1,33,50)             882.98041     
     84     (1,34,50)             880.52616     
     85     (1,35,50)             877.18443     
     86     (1,36,50)             873.27313     
     87     (1,37,50)             869.08386     
     88     (1,38,50)             864.85566     
     89     (1,39,50)             860.76688     
     90     (1,40,50)             856.93897     
     91     (1,41,50)             853.44640     
     92     (1,42,50)             850.32818     
     93     (1,43,50)             847.59866     
     94     (1,44,50)             845.25632     
     95     (1,45,50)             843.29040     
     96     (1,46,50)             841.68574     
     97     (1,47,50)             840.42633     
     98     (1,48,50)             839.49764     
     99     (1,49,50)             838.88831     
    100     (1,50,50)             838.59128     
 -----------------------------------------------




 HEAD WILL BE SAVED ON UNIT 1014 AT END OF TIME STEP    1, STRESS PERIOD    1


  VOLUME BUDGET FOR ENTIRE MODEL AT END OF TIME STEP    1, STRESS PERIOD   1
  ---------------------------------------------------------------------------------------------------

     CUMULATIVE VOLUME      L**3       RATES FOR THIS TIME STEP      L**3/T          PACKAGE NAME    
     ------------------                 ------------------------                     ----------------

           IN:                                      IN:
           ---                                      ---
                 WEL =        5000.0000                   WEL =        5000.0000     WEL-1                            
                 CHD =       41917.6304                   CHD =       41917.6304     CHD-1                            

            TOTAL IN =       46917.6304              TOTAL IN =       46917.6304

          OUT:                                     OUT:
          ----                                     ----
                 WEL =        3000.0000                   WEL =        3000.0000     WEL-1                            
                 CHD =       43917.9147                   CHD =       43917.9147     CHD-1                            

           TOTAL OUT =       46917.9147             TOTAL OUT =       46917.9147

            IN - OUT =          -0.2843              IN - OUT =          -0.2843

 PERCENT DISCREPANCY =          -0.00     PERCENT DISCREPANCY =          -0.00




         TIME SUMMARY AT END OF TIME STEP    1 IN STRESS PERIOD    1
                    SECONDS     MINUTES      HOURS       DAYS        YEARS
                    -----------------------------------------------------------
   TIME STEP LENGTH  86400.      1440.0      24.000      1.0000     2.73785E-03
 STRESS PERIOD TIME  86400.      1440.0      24.000      1.0000     2.73785E-03
         TOTAL TIME  86400.      1440.0      24.000      1.0000     2.73785E-03


end timestep

